<?xml version='1.0' encoding='utf-8'?>
<routes>
  <vType id="demo_14_official_passenger" vClass="passenger" emissionClass="HBEFA3/PC_G_EU4" accel="2.6" decel="4.5" sigma="0.5" length="5" width="1.8" minGap="2.5" maxSpeed="13.9" />
  <flow id="demo_14_off_peak_00_east_left" type="demo_14_official_passenger" begin="0" end="900" number="74" departLane="best" departSpeed="max">
    <route edges="-46785 -52217" />
  </flow>
  <flow id="demo_14_off_peak_00_east_right" type="demo_14_official_passenger" begin="0" end="900" number="56" departLane="best" departSpeed="max">
    <route edges="-46785 -46538" />
  </flow>
  <flow id="demo_14_off_peak_00_south_through" type="demo_14_official_passenger" begin="0" end="900" number="32" departLane="best" departSpeed="max">
    <route edges="-46539 -46538" />
  </flow>
  <flow id="demo_14_off_peak_00_south_right" type="demo_14_official_passenger" begin="0" end="900" number="72" departLane="best" departSpeed="max">
    <route edges="-46539 -52559" />
  </flow>
  <flow id="demo_14_off_peak_00_north_left" type="demo_14_official_passenger" begin="0" end="900" number="76" departLane="best" departSpeed="max">
    <route edges="-52216 -52559" />
  </flow>
  <flow id="demo_14_off_peak_00_north_through" type="demo_14_official_passenger" begin="0" end="900" number="40" departLane="best" departSpeed="max">
    <route edges="-52216 -52217" />
  </flow>
  <flow id="demo_14_off_peak_01_east_left" type="demo_14_official_passenger" begin="900" end="1800" number="69" departLane="best" departSpeed="max">
    <route edges="-46785 -52217" />
  </flow>
  <flow id="demo_14_off_peak_01_east_right" type="demo_14_official_passenger" begin="900" end="1800" number="52" departLane="best" departSpeed="max">
    <route edges="-46785 -46538" />
  </flow>
  <flow id="demo_14_off_peak_01_south_through" type="demo_14_official_passenger" begin="900" end="1800" number="27" departLane="best" departSpeed="max">
    <route edges="-46539 -46538" />
  </flow>
  <flow id="demo_14_off_peak_01_south_right" type="demo_14_official_passenger" begin="900" end="1800" number="69" departLane="best" departSpeed="max">
    <route edges="-46539 -52559" />
  </flow>
  <flow id="demo_14_off_peak_01_north_left" type="demo_14_official_passenger" begin="900" end="1800" number="82" departLane="best" departSpeed="max">
    <route edges="-52216 -52559" />
  </flow>
  <flow id="demo_14_off_peak_01_north_through" type="demo_14_official_passenger" begin="900" end="1800" number="43" departLane="best" departSpeed="max">
    <route edges="-52216 -52217" />
  </flow>
  <flow id="demo_14_off_peak_02_east_left" type="demo_14_official_passenger" begin="1800" end="2700" number="72" departLane="best" departSpeed="max">
    <route edges="-46785 -52217" />
  </flow>
  <flow id="demo_14_off_peak_02_east_right" type="demo_14_official_passenger" begin="1800" end="2700" number="58" departLane="best" departSpeed="max">
    <route edges="-46785 -46538" />
  </flow>
  <flow id="demo_14_off_peak_02_south_through" type="demo_14_official_passenger" begin="1800" end="2700" number="29" departLane="best" departSpeed="max">
    <route edges="-46539 -46538" />
  </flow>
  <flow id="demo_14_off_peak_02_south_right" type="demo_14_official_passenger" begin="1800" end="2700" number="75" departLane="best" departSpeed="max">
    <route edges="-46539 -52559" />
  </flow>
  <flow id="demo_14_off_peak_02_north_left" type="demo_14_official_passenger" begin="1800" end="2700" number="79" departLane="best" departSpeed="max">
    <route edges="-52216 -52559" />
  </flow>
  <flow id="demo_14_off_peak_02_north_through" type="demo_14_official_passenger" begin="1800" end="2700" number="37" departLane="best" departSpeed="max">
    <route edges="-52216 -52217" />
  </flow>
  <flow id="demo_14_off_peak_03_east_left" type="demo_14_official_passenger" begin="2700" end="3600" number="67" departLane="best" departSpeed="max">
    <route edges="-46785 -52217" />
  </flow>
  <flow id="demo_14_off_peak_03_east_right" type="demo_14_official_passenger" begin="2700" end="3600" number="49" departLane="best" departSpeed="max">
    <route edges="-46785 -46538" />
  </flow>
  <flow id="demo_14_off_peak_03_south_through" type="demo_14_official_passenger" begin="2700" end="3600" number="26" departLane="best" departSpeed="max">
    <route edges="-46539 -46538" />
  </flow>
  <flow id="demo_14_off_peak_03_south_right" type="demo_14_official_passenger" begin="2700" end="3600" number="68" departLane="best" departSpeed="max">
    <route edges="-46539 -52559" />
  </flow>
  <flow id="demo_14_off_peak_03_north_left" type="demo_14_official_passenger" begin="2700" end="3600" number="85" departLane="best" departSpeed="max">
    <route edges="-52216 -52559" />
  </flow>
  <flow id="demo_14_off_peak_03_north_through" type="demo_14_official_passenger" begin="2700" end="3600" number="42" departLane="best" departSpeed="max">
    <route edges="-52216 -52217" />
  </flow>
  <flow id="demo_14_off_peak_04_east_left" type="demo_14_official_passenger" begin="3600" end="4500" number="70" departLane="best" departSpeed="max">
    <route edges="-46785 -52217" />
  </flow>
  <flow id="demo_14_off_peak_04_east_right" type="demo_14_official_passenger" begin="3600" end="4500" number="54" departLane="best" departSpeed="max">
    <route edges="-46785 -46538" />
  </flow>
  <flow id="demo_14_off_peak_04_south_through" type="demo_14_official_passenger" begin="3600" end="4500" number="31" departLane="best" departSpeed="max">
    <route edges="-46539 -46538" />
  </flow>
  <flow id="demo_14_off_peak_04_south_right" type="demo_14_official_passenger" begin="3600" end="4500" number="70" departLane="best" departSpeed="max">
    <route edges="-46539 -52559" />
  </flow>
  <flow id="demo_14_off_peak_04_north_left" type="demo_14_official_passenger" begin="3600" end="4500" number="73" departLane="best" departSpeed="max">
    <route edges="-52216 -52559" />
  </flow>
  <flow id="demo_14_off_peak_04_north_through" type="demo_14_official_passenger" begin="3600" end="4500" number="38" departLane="best" departSpeed="max">
    <route edges="-52216 -52217" />
  </flow>
  <flow id="demo_14_off_peak_05_east_left" type="demo_14_official_passenger" begin="4500" end="5400" number="75" departLane="best" departSpeed="max">
    <route edges="-46785 -52217" />
  </flow>
  <flow id="demo_14_off_peak_05_east_right" type="demo_14_official_passenger" begin="4500" end="5400" number="51" departLane="best" departSpeed="max">
    <route edges="-46785 -46538" />
  </flow>
  <flow id="demo_14_off_peak_05_south_through" type="demo_14_official_passenger" begin="4500" end="5400" number="28" departLane="best" departSpeed="max">
    <route edges="-46539 -46538" />
  </flow>
  <flow id="demo_14_off_peak_05_south_right" type="demo_14_official_passenger" begin="4500" end="5400" number="73" departLane="best" departSpeed="max">
    <route edges="-46539 -52559" />
  </flow>
  <flow id="demo_14_off_peak_05_north_left" type="demo_14_official_passenger" begin="4500" end="5400" number="80" departLane="best" departSpeed="max">
    <route edges="-52216 -52559" />
  </flow>
  <flow id="demo_14_off_peak_05_north_through" type="demo_14_official_passenger" begin="4500" end="5400" number="41" departLane="best" departSpeed="max">
    <route edges="-52216 -52217" />
  </flow>
  <flow id="demo_14_off_peak_06_east_left" type="demo_14_official_passenger" begin="5400" end="6300" number="68" departLane="best" departSpeed="max">
    <route edges="-46785 -52217" />
  </flow>
  <flow id="demo_14_off_peak_06_east_right" type="demo_14_official_passenger" begin="5400" end="6300" number="60" departLane="best" departSpeed="max">
    <route edges="-46785 -46538" />
  </flow>
  <flow id="demo_14_off_peak_06_south_through" type="demo_14_official_passenger" begin="5400" end="6300" number="25" departLane="best" departSpeed="max">
    <route edges="-46539 -46538" />
  </flow>
  <flow id="demo_14_off_peak_06_south_right" type="demo_14_official_passenger" begin="5400" end="6300" number="66" departLane="best" departSpeed="max">
    <route edges="-46539 -52559" />
  </flow>
  <flow id="demo_14_off_peak_06_north_left" type="demo_14_official_passenger" begin="5400" end="6300" number="77" departLane="best" departSpeed="max">
    <route edges="-52216 -52559" />
  </flow>
  <flow id="demo_14_off_peak_06_north_through" type="demo_14_official_passenger" begin="5400" end="6300" number="36" departLane="best" departSpeed="max">
    <route edges="-52216 -52217" />
  </flow>
  <flow id="demo_14_off_peak_07_east_left" type="demo_14_official_passenger" begin="6300" end="7200" number="87" departLane="best" departSpeed="max">
    <route edges="-46785 -52217" />
  </flow>
  <flow id="demo_14_off_peak_07_east_right" type="demo_14_official_passenger" begin="6300" end="7200" number="62" departLane="best" departSpeed="max">
    <route edges="-46785 -46538" />
  </flow>
  <flow id="demo_14_off_peak_07_south_through" type="demo_14_official_passenger" begin="6300" end="7200" number="29" departLane="best" departSpeed="max">
    <route edges="-46539 -46538" />
  </flow>
  <flow id="demo_14_off_peak_07_south_right" type="demo_14_official_passenger" begin="6300" end="7200" number="90" departLane="best" departSpeed="max">
    <route edges="-46539 -52559" />
  </flow>
  <flow id="demo_14_off_peak_07_north_left" type="demo_14_official_passenger" begin="6300" end="7200" number="82" departLane="best" departSpeed="max">
    <route edges="-52216 -52559" />
  </flow>
  <flow id="demo_14_off_peak_07_north_through" type="demo_14_official_passenger" begin="6300" end="7200" number="47" departLane="best" departSpeed="max">
    <route edges="-52216 -52217" />
  </flow>
</routes>