<?xml version='1.0' encoding='utf-8'?>
<additional>
  <tlLogic id="4409" type="static" programID="demo_18_evening_peak" offset="0">
    <phase duration="37" state="gggrrrrrgggGGggggggrrrrrgggGGggg" name="p1_green" />
    <phase duration="3" state="gggrrrrrgggyyyyygggrrrrrgggyyyyy" name="p1_yellow" />
    <phase duration="37" state="gggGGggggggrrrrrgggGGggggggrrrrr" name="p2_green" />
    <phase duration="3" state="gggyyyyygggrrrrrgggyyyyygggrrrrr" name="p2_yellow" />
  </tlLogic>
</additional>