<?xml version='1.0' encoding='utf-8'?>
<routes>
  <vType id="demo_5_official_passenger" vClass="passenger" emissionClass="HBEFA3/PC_G_EU4" accel="2.6" decel="4.5" sigma="0.5" length="5" width="1.8" minGap="2.5" maxSpeed="13.9" />
  <flow id="demo_5_morning_peak_00_east_left" type="demo_5_official_passenger" begin="0" end="900" number="46" departLane="best" departSpeed="max">
    <route edges="-50182 -50820" />
  </flow>
  <flow id="demo_5_morning_peak_00_east_through" type="demo_5_official_passenger" begin="0" end="900" number="45" departLane="best" departSpeed="max">
    <route edges="-50182 -50172" />
  </flow>
  <flow id="demo_5_morning_peak_00_west_through" type="demo_5_official_passenger" begin="0" end="900" number="78" departLane="best" departSpeed="max">
    <route edges="-56392 -56402" />
  </flow>
  <flow id="demo_5_morning_peak_00_west_right" type="demo_5_official_passenger" begin="0" end="900" number="33" departLane="best" departSpeed="max">
    <route edges="-56392 -50820" />
  </flow>
  <flow id="demo_5_morning_peak_00_south_left" type="demo_5_official_passenger" begin="0" end="900" number="40" departLane="best" departSpeed="max">
    <route edges="-57586 -50172" />
  </flow>
  <flow id="demo_5_morning_peak_00_south_right" type="demo_5_official_passenger" begin="0" end="900" number="60" departLane="best" departSpeed="max">
    <route edges="-57586 -56402" />
  </flow>
  <flow id="demo_5_morning_peak_01_east_left" type="demo_5_official_passenger" begin="900" end="1800" number="45" departLane="best" departSpeed="max">
    <route edges="-50182 -50820" />
  </flow>
  <flow id="demo_5_morning_peak_01_east_through" type="demo_5_official_passenger" begin="900" end="1800" number="47" departLane="best" departSpeed="max">
    <route edges="-50182 -50172" />
  </flow>
  <flow id="demo_5_morning_peak_01_west_through" type="demo_5_official_passenger" begin="900" end="1800" number="80" departLane="best" departSpeed="max">
    <route edges="-56392 -56402" />
  </flow>
  <flow id="demo_5_morning_peak_01_west_right" type="demo_5_official_passenger" begin="900" end="1800" number="34" departLane="best" departSpeed="max">
    <route edges="-56392 -50820" />
  </flow>
  <flow id="demo_5_morning_peak_01_south_left" type="demo_5_official_passenger" begin="900" end="1800" number="41" departLane="best" departSpeed="max">
    <route edges="-57586 -50172" />
  </flow>
  <flow id="demo_5_morning_peak_01_south_right" type="demo_5_official_passenger" begin="900" end="1800" number="61" departLane="best" departSpeed="max">
    <route edges="-57586 -56402" />
  </flow>
  <flow id="demo_5_morning_peak_02_east_left" type="demo_5_official_passenger" begin="1800" end="2700" number="47" departLane="best" departSpeed="max">
    <route edges="-50182 -50820" />
  </flow>
  <flow id="demo_5_morning_peak_02_east_through" type="demo_5_official_passenger" begin="1800" end="2700" number="44" departLane="best" departSpeed="max">
    <route edges="-50182 -50172" />
  </flow>
  <flow id="demo_5_morning_peak_02_west_through" type="demo_5_official_passenger" begin="1800" end="2700" number="76" departLane="best" departSpeed="max">
    <route edges="-56392 -56402" />
  </flow>
  <flow id="demo_5_morning_peak_02_west_right" type="demo_5_official_passenger" begin="1800" end="2700" number="32" departLane="best" departSpeed="max">
    <route edges="-56392 -50820" />
  </flow>
  <flow id="demo_5_morning_peak_02_south_left" type="demo_5_official_passenger" begin="1800" end="2700" number="39" departLane="best" departSpeed="max">
    <route edges="-57586 -50172" />
  </flow>
  <flow id="demo_5_morning_peak_02_south_right" type="demo_5_official_passenger" begin="1800" end="2700" number="59" departLane="best" departSpeed="max">
    <route edges="-57586 -56402" />
  </flow>
  <flow id="demo_5_morning_peak_03_east_left" type="demo_5_official_passenger" begin="2700" end="3600" number="44" departLane="best" departSpeed="max">
    <route edges="-50182 -50820" />
  </flow>
  <flow id="demo_5_morning_peak_03_east_through" type="demo_5_official_passenger" begin="2700" end="3600" number="46" departLane="best" departSpeed="max">
    <route edges="-50182 -50172" />
  </flow>
  <flow id="demo_5_morning_peak_03_west_through" type="demo_5_official_passenger" begin="2700" end="3600" number="79" departLane="best" departSpeed="max">
    <route edges="-56392 -56402" />
  </flow>
  <flow id="demo_5_morning_peak_03_west_right" type="demo_5_official_passenger" begin="2700" end="3600" number="35" departLane="best" departSpeed="max">
    <route edges="-56392 -50820" />
  </flow>
  <flow id="demo_5_morning_peak_03_south_left" type="demo_5_official_passenger" begin="2700" end="3600" number="42" departLane="best" departSpeed="max">
    <route edges="-57586 -50172" />
  </flow>
  <flow id="demo_5_morning_peak_03_south_right" type="demo_5_official_passenger" begin="2700" end="3600" number="62" departLane="best" departSpeed="max">
    <route edges="-57586 -56402" />
  </flow>
  <flow id="demo_5_morning_peak_04_east_left" type="demo_5_official_passenger" begin="3600" end="4500" number="46" departLane="best" departSpeed="max">
    <route edges="-50182 -50820" />
  </flow>
  <flow id="demo_5_morning_peak_04_east_through" type="demo_5_official_passenger" begin="3600" end="4500" number="48" departLane="best" departSpeed="max">
    <route edges="-50182 -50172" />
  </flow>
  <flow id="demo_5_morning_peak_04_west_through" type="demo_5_official_passenger" begin="3600" end="4500" number="81" departLane="best" departSpeed="max">
    <route edges="-56392 -56402" />
  </flow>
  <flow id="demo_5_morning_peak_04_west_right" type="demo_5_official_passenger" begin="3600" end="4500" number="33" departLane="best" departSpeed="max">
    <route edges="-56392 -50820" />
  </flow>
  <flow id="demo_5_morning_peak_04_south_left" type="demo_5_official_passenger" begin="3600" end="4500" number="40" departLane="best" departSpeed="max">
    <route edges="-57586 -50172" />
  </flow>
  <flow id="demo_5_morning_peak_04_south_right" type="demo_5_official_passenger" begin="3600" end="4500" number="60" departLane="best" departSpeed="max">
    <route edges="-57586 -56402" />
  </flow>
  <flow id="demo_5_morning_peak_05_east_left" type="demo_5_official_passenger" begin="4500" end="5400" number="48" departLane="best" departSpeed="max">
    <route edges="-50182 -50820" />
  </flow>
  <flow id="demo_5_morning_peak_05_east_through" type="demo_5_official_passenger" begin="4500" end="5400" number="45" departLane="best" departSpeed="max">
    <route edges="-50182 -50172" />
  </flow>
  <flow id="demo_5_morning_peak_05_west_through" type="demo_5_official_passenger" begin="4500" end="5400" number="77" departLane="best" departSpeed="max">
    <route edges="-56392 -56402" />
  </flow>
  <flow id="demo_5_morning_peak_05_west_right" type="demo_5_official_passenger" begin="4500" end="5400" number="34" departLane="best" departSpeed="max">
    <route edges="-56392 -50820" />
  </flow>
  <flow id="demo_5_morning_peak_05_south_left" type="demo_5_official_passenger" begin="4500" end="5400" number="41" departLane="best" departSpeed="max">
    <route edges="-57586 -50172" />
  </flow>
  <flow id="demo_5_morning_peak_05_south_right" type="demo_5_official_passenger" begin="4500" end="5400" number="61" departLane="best" departSpeed="max">
    <route edges="-57586 -56402" />
  </flow>
  <flow id="demo_5_morning_peak_06_east_left" type="demo_5_official_passenger" begin="5400" end="6300" number="45" departLane="best" departSpeed="max">
    <route edges="-50182 -50820" />
  </flow>
  <flow id="demo_5_morning_peak_06_east_through" type="demo_5_official_passenger" begin="5400" end="6300" number="46" departLane="best" departSpeed="max">
    <route edges="-50182 -50172" />
  </flow>
  <flow id="demo_5_morning_peak_06_west_through" type="demo_5_official_passenger" begin="5400" end="6300" number="75" departLane="best" departSpeed="max">
    <route edges="-56392 -56402" />
  </flow>
  <flow id="demo_5_morning_peak_06_west_right" type="demo_5_official_passenger" begin="5400" end="6300" number="32" departLane="best" departSpeed="max">
    <route edges="-56392 -50820" />
  </flow>
  <flow id="demo_5_morning_peak_06_south_left" type="demo_5_official_passenger" begin="5400" end="6300" number="38" departLane="best" departSpeed="max">
    <route edges="-57586 -50172" />
  </flow>
  <flow id="demo_5_morning_peak_06_south_right" type="demo_5_official_passenger" begin="5400" end="6300" number="58" departLane="best" departSpeed="max">
    <route edges="-57586 -56402" />
  </flow>
  <flow id="demo_5_morning_peak_07_east_left" type="demo_5_official_passenger" begin="6300" end="7200" number="47" departLane="best" departSpeed="max">
    <route edges="-50182 -50820" />
  </flow>
  <flow id="demo_5_morning_peak_07_east_through" type="demo_5_official_passenger" begin="6300" end="7200" number="47" departLane="best" departSpeed="max">
    <route edges="-50182 -50172" />
  </flow>
  <flow id="demo_5_morning_peak_07_west_through" type="demo_5_official_passenger" begin="6300" end="7200" number="77" departLane="best" departSpeed="max">
    <route edges="-56392 -56402" />
  </flow>
  <flow id="demo_5_morning_peak_07_west_right" type="demo_5_official_passenger" begin="6300" end="7200" number="34" departLane="best" departSpeed="max">
    <route edges="-56392 -50820" />
  </flow>
  <flow id="demo_5_morning_peak_07_south_left" type="demo_5_official_passenger" begin="6300" end="7200" number="44" departLane="best" departSpeed="max">
    <route edges="-57586 -50172" />
  </flow>
  <flow id="demo_5_morning_peak_07_south_right" type="demo_5_official_passenger" begin="6300" end="7200" number="66" departLane="best" departSpeed="max">
    <route edges="-57586 -56402" />
  </flow>
</routes>