<?xml version='1.0' encoding='utf-8'?>
<routes>
  <vType id="demo_2_official_passenger" vClass="passenger" accel="2.6" decel="4.5" sigma="0.5" length="5" minGap="2.5" maxSpeed="13.9" />
  <flow id="demo_2_evening_peak_00_west_left" type="demo_2_official_passenger" begin="0" end="900" number="39" departLane="best" departSpeed="max">
    <route edges="-51425 -56736" />
  </flow>
  <flow id="demo_2_evening_peak_00_west_right" type="demo_2_official_passenger" begin="0" end="900" number="50" departLane="best" departSpeed="max">
    <route edges="-51425 -57229" />
  </flow>
  <flow id="demo_2_evening_peak_00_north_through" type="demo_2_official_passenger" begin="0" end="900" number="73" departLane="best" departSpeed="max">
    <route edges="-56734 -56736" />
  </flow>
  <flow id="demo_2_evening_peak_00_north_right" type="demo_2_official_passenger" begin="0" end="900" number="32" departLane="best" departSpeed="max">
    <route edges="-56734 -45801" />
  </flow>
  <flow id="demo_2_evening_peak_00_south_left" type="demo_2_official_passenger" begin="0" end="900" number="42" departLane="best" departSpeed="max">
    <route edges="-57228 -45801" />
  </flow>
  <flow id="demo_2_evening_peak_00_south_through" type="demo_2_official_passenger" begin="0" end="900" number="51" departLane="best" departSpeed="max">
    <route edges="-57228 -57229" />
  </flow>
  <flow id="demo_2_evening_peak_01_west_left" type="demo_2_official_passenger" begin="900" end="1800" number="37" departLane="best" departSpeed="max">
    <route edges="-51425 -56736" />
  </flow>
  <flow id="demo_2_evening_peak_01_west_right" type="demo_2_official_passenger" begin="900" end="1800" number="49" departLane="best" departSpeed="max">
    <route edges="-51425 -57229" />
  </flow>
  <flow id="demo_2_evening_peak_01_north_through" type="demo_2_official_passenger" begin="900" end="1800" number="72" departLane="best" departSpeed="max">
    <route edges="-56734 -56736" />
  </flow>
  <flow id="demo_2_evening_peak_01_north_right" type="demo_2_official_passenger" begin="900" end="1800" number="31" departLane="best" departSpeed="max">
    <route edges="-56734 -45801" />
  </flow>
  <flow id="demo_2_evening_peak_01_south_left" type="demo_2_official_passenger" begin="900" end="1800" number="41" departLane="best" departSpeed="max">
    <route edges="-57228 -45801" />
  </flow>
  <flow id="demo_2_evening_peak_01_south_through" type="demo_2_official_passenger" begin="900" end="1800" number="49" departLane="best" departSpeed="max">
    <route edges="-57228 -57229" />
  </flow>
  <flow id="demo_2_evening_peak_02_west_left" type="demo_2_official_passenger" begin="1800" end="2700" number="40" departLane="best" departSpeed="max">
    <route edges="-51425 -56736" />
  </flow>
  <flow id="demo_2_evening_peak_02_west_right" type="demo_2_official_passenger" begin="1800" end="2700" number="50" departLane="best" departSpeed="max">
    <route edges="-51425 -57229" />
  </flow>
  <flow id="demo_2_evening_peak_02_north_through" type="demo_2_official_passenger" begin="1800" end="2700" number="74" departLane="best" departSpeed="max">
    <route edges="-56734 -56736" />
  </flow>
  <flow id="demo_2_evening_peak_02_north_right" type="demo_2_official_passenger" begin="1800" end="2700" number="32" departLane="best" departSpeed="max">
    <route edges="-56734 -45801" />
  </flow>
  <flow id="demo_2_evening_peak_02_south_left" type="demo_2_official_passenger" begin="1800" end="2700" number="44" departLane="best" departSpeed="max">
    <route edges="-57228 -45801" />
  </flow>
  <flow id="demo_2_evening_peak_02_south_through" type="demo_2_official_passenger" begin="1800" end="2700" number="51" departLane="best" departSpeed="max">
    <route edges="-57228 -57229" />
  </flow>
  <flow id="demo_2_evening_peak_03_west_left" type="demo_2_official_passenger" begin="2700" end="3600" number="41" departLane="best" departSpeed="max">
    <route edges="-51425 -56736" />
  </flow>
  <flow id="demo_2_evening_peak_03_west_right" type="demo_2_official_passenger" begin="2700" end="3600" number="46" departLane="best" departSpeed="max">
    <route edges="-51425 -57229" />
  </flow>
  <flow id="demo_2_evening_peak_03_north_through" type="demo_2_official_passenger" begin="2700" end="3600" number="73" departLane="best" departSpeed="max">
    <route edges="-56734 -56736" />
  </flow>
  <flow id="demo_2_evening_peak_03_north_right" type="demo_2_official_passenger" begin="2700" end="3600" number="35" departLane="best" departSpeed="max">
    <route edges="-56734 -45801" />
  </flow>
  <flow id="demo_2_evening_peak_03_south_left" type="demo_2_official_passenger" begin="2700" end="3600" number="42" departLane="best" departSpeed="max">
    <route edges="-57228 -45801" />
  </flow>
  <flow id="demo_2_evening_peak_03_south_through" type="demo_2_official_passenger" begin="2700" end="3600" number="48" departLane="best" departSpeed="max">
    <route edges="-57228 -57229" />
  </flow>
  <flow id="demo_2_evening_peak_04_west_left" type="demo_2_official_passenger" begin="3600" end="4500" number="36" departLane="best" departSpeed="max">
    <route edges="-51425 -56736" />
  </flow>
  <flow id="demo_2_evening_peak_04_west_right" type="demo_2_official_passenger" begin="3600" end="4500" number="49" departLane="best" departSpeed="max">
    <route edges="-51425 -57229" />
  </flow>
  <flow id="demo_2_evening_peak_04_north_through" type="demo_2_official_passenger" begin="3600" end="4500" number="75" departLane="best" departSpeed="max">
    <route edges="-56734 -56736" />
  </flow>
  <flow id="demo_2_evening_peak_04_north_right" type="demo_2_official_passenger" begin="3600" end="4500" number="33" departLane="best" departSpeed="max">
    <route edges="-56734 -45801" />
  </flow>
  <flow id="demo_2_evening_peak_04_south_left" type="demo_2_official_passenger" begin="3600" end="4500" number="46" departLane="best" departSpeed="max">
    <route edges="-57228 -45801" />
  </flow>
  <flow id="demo_2_evening_peak_04_south_through" type="demo_2_official_passenger" begin="3600" end="4500" number="53" departLane="best" departSpeed="max">
    <route edges="-57228 -57229" />
  </flow>
  <flow id="demo_2_evening_peak_05_west_left" type="demo_2_official_passenger" begin="4500" end="5400" number="38" departLane="best" departSpeed="max">
    <route edges="-51425 -56736" />
  </flow>
  <flow id="demo_2_evening_peak_05_west_right" type="demo_2_official_passenger" begin="4500" end="5400" number="51" departLane="best" departSpeed="max">
    <route edges="-51425 -57229" />
  </flow>
  <flow id="demo_2_evening_peak_05_north_through" type="demo_2_official_passenger" begin="4500" end="5400" number="69" departLane="best" departSpeed="max">
    <route edges="-56734 -56736" />
  </flow>
  <flow id="demo_2_evening_peak_05_north_right" type="demo_2_official_passenger" begin="4500" end="5400" number="32" departLane="best" departSpeed="max">
    <route edges="-56734 -45801" />
  </flow>
  <flow id="demo_2_evening_peak_05_south_left" type="demo_2_official_passenger" begin="4500" end="5400" number="47" departLane="best" departSpeed="max">
    <route edges="-57228 -45801" />
  </flow>
  <flow id="demo_2_evening_peak_05_south_through" type="demo_2_official_passenger" begin="4500" end="5400" number="53" departLane="best" departSpeed="max">
    <route edges="-57228 -57229" />
  </flow>
  <flow id="demo_2_evening_peak_06_west_left" type="demo_2_official_passenger" begin="5400" end="6300" number="36" departLane="best" departSpeed="max">
    <route edges="-51425 -56736" />
  </flow>
  <flow id="demo_2_evening_peak_06_west_right" type="demo_2_official_passenger" begin="5400" end="6300" number="47" departLane="best" departSpeed="max">
    <route edges="-51425 -57229" />
  </flow>
  <flow id="demo_2_evening_peak_06_north_through" type="demo_2_official_passenger" begin="5400" end="6300" number="74" departLane="best" departSpeed="max">
    <route edges="-56734 -56736" />
  </flow>
  <flow id="demo_2_evening_peak_06_north_right" type="demo_2_official_passenger" begin="5400" end="6300" number="34" departLane="best" departSpeed="max">
    <route edges="-56734 -45801" />
  </flow>
  <flow id="demo_2_evening_peak_06_south_left" type="demo_2_official_passenger" begin="5400" end="6300" number="43" departLane="best" departSpeed="max">
    <route edges="-57228 -45801" />
  </flow>
  <flow id="demo_2_evening_peak_06_south_through" type="demo_2_official_passenger" begin="5400" end="6300" number="51" departLane="best" departSpeed="max">
    <route edges="-57228 -57229" />
  </flow>
  <flow id="demo_2_evening_peak_07_west_left" type="demo_2_official_passenger" begin="6300" end="7200" number="38" departLane="best" departSpeed="max">
    <route edges="-51425 -56736" />
  </flow>
  <flow id="demo_2_evening_peak_07_west_right" type="demo_2_official_passenger" begin="6300" end="7200" number="46" departLane="best" departSpeed="max">
    <route edges="-51425 -57229" />
  </flow>
  <flow id="demo_2_evening_peak_07_north_through" type="demo_2_official_passenger" begin="6300" end="7200" number="73" departLane="best" departSpeed="max">
    <route edges="-56734 -56736" />
  </flow>
  <flow id="demo_2_evening_peak_07_north_right" type="demo_2_official_passenger" begin="6300" end="7200" number="35" departLane="best" departSpeed="max">
    <route edges="-56734 -45801" />
  </flow>
  <flow id="demo_2_evening_peak_07_south_left" type="demo_2_official_passenger" begin="6300" end="7200" number="44" departLane="best" departSpeed="max">
    <route edges="-57228 -45801" />
  </flow>
  <flow id="demo_2_evening_peak_07_south_through" type="demo_2_official_passenger" begin="6300" end="7200" number="54" departLane="best" departSpeed="max">
    <route edges="-57228 -57229" />
  </flow>
</routes>