<?xml version='1.0' encoding='utf-8'?>
<routes>
  <vType id="demo_10_official_passenger" vClass="passenger" emissionClass="HBEFA3/PC_G_EU4" accel="2.6" decel="4.5" sigma="0.5" length="5" width="1.8" minGap="2.5" maxSpeed="13.9" />
  <flow id="demo_10_morning_peak_00_east_left" type="demo_10_official_passenger" begin="0" end="900" number="122" departLane="best" departSpeed="max">
    <route edges="-50726 -57487" />
  </flow>
  <flow id="demo_10_morning_peak_00_east_through" type="demo_10_official_passenger" begin="0" end="900" number="44" departLane="best" departSpeed="max">
    <route edges="-50726 -50725" />
  </flow>
  <flow id="demo_10_morning_peak_00_west_through" type="demo_10_official_passenger" begin="0" end="900" number="56" departLane="best" departSpeed="max">
    <route edges="-57445 -57446" />
  </flow>
  <flow id="demo_10_morning_peak_00_west_right" type="demo_10_official_passenger" begin="0" end="900" number="73" departLane="best" departSpeed="max">
    <route edges="-57445 -57487" />
  </flow>
  <flow id="demo_10_morning_peak_00_south_left" type="demo_10_official_passenger" begin="0" end="900" number="95" departLane="best" departSpeed="max">
    <route edges="-50758 -50725" />
  </flow>
  <flow id="demo_10_morning_peak_00_south_right" type="demo_10_official_passenger" begin="0" end="900" number="60" departLane="best" departSpeed="max">
    <route edges="-50758 -57446" />
  </flow>
  <flow id="demo_10_morning_peak_01_east_left" type="demo_10_official_passenger" begin="900" end="1800" number="124" departLane="best" departSpeed="max">
    <route edges="-50726 -57487" />
  </flow>
  <flow id="demo_10_morning_peak_01_east_through" type="demo_10_official_passenger" begin="900" end="1800" number="42" departLane="best" departSpeed="max">
    <route edges="-50726 -50725" />
  </flow>
  <flow id="demo_10_morning_peak_01_west_through" type="demo_10_official_passenger" begin="900" end="1800" number="54" departLane="best" departSpeed="max">
    <route edges="-57445 -57446" />
  </flow>
  <flow id="demo_10_morning_peak_01_west_right" type="demo_10_official_passenger" begin="900" end="1800" number="76" departLane="best" departSpeed="max">
    <route edges="-57445 -57487" />
  </flow>
  <flow id="demo_10_morning_peak_01_south_left" type="demo_10_official_passenger" begin="900" end="1800" number="97" departLane="best" departSpeed="max">
    <route edges="-50758 -50725" />
  </flow>
  <flow id="demo_10_morning_peak_01_south_right" type="demo_10_official_passenger" begin="900" end="1800" number="61" departLane="best" departSpeed="max">
    <route edges="-50758 -57446" />
  </flow>
  <flow id="demo_10_morning_peak_02_east_left" type="demo_10_official_passenger" begin="1800" end="2700" number="123" departLane="best" departSpeed="max">
    <route edges="-50726 -57487" />
  </flow>
  <flow id="demo_10_morning_peak_02_east_through" type="demo_10_official_passenger" begin="1800" end="2700" number="44" departLane="best" departSpeed="max">
    <route edges="-50726 -50725" />
  </flow>
  <flow id="demo_10_morning_peak_02_west_through" type="demo_10_official_passenger" begin="1800" end="2700" number="57" departLane="best" departSpeed="max">
    <route edges="-57445 -57446" />
  </flow>
  <flow id="demo_10_morning_peak_02_west_right" type="demo_10_official_passenger" begin="1800" end="2700" number="75" departLane="best" departSpeed="max">
    <route edges="-57445 -57487" />
  </flow>
  <flow id="demo_10_morning_peak_02_south_left" type="demo_10_official_passenger" begin="1800" end="2700" number="95" departLane="best" departSpeed="max">
    <route edges="-50758 -50725" />
  </flow>
  <flow id="demo_10_morning_peak_02_south_right" type="demo_10_official_passenger" begin="1800" end="2700" number="61" departLane="best" departSpeed="max">
    <route edges="-50758 -57446" />
  </flow>
  <flow id="demo_10_morning_peak_03_east_left" type="demo_10_official_passenger" begin="2700" end="3600" number="119" departLane="best" departSpeed="max">
    <route edges="-50726 -57487" />
  </flow>
  <flow id="demo_10_morning_peak_03_east_through" type="demo_10_official_passenger" begin="2700" end="3600" number="41" departLane="best" departSpeed="max">
    <route edges="-50726 -50725" />
  </flow>
  <flow id="demo_10_morning_peak_03_west_through" type="demo_10_official_passenger" begin="2700" end="3600" number="58" departLane="best" departSpeed="max">
    <route edges="-57445 -57446" />
  </flow>
  <flow id="demo_10_morning_peak_03_west_right" type="demo_10_official_passenger" begin="2700" end="3600" number="76" departLane="best" departSpeed="max">
    <route edges="-57445 -57487" />
  </flow>
  <flow id="demo_10_morning_peak_03_south_left" type="demo_10_official_passenger" begin="2700" end="3600" number="97" departLane="best" departSpeed="max">
    <route edges="-50758 -50725" />
  </flow>
  <flow id="demo_10_morning_peak_03_south_right" type="demo_10_official_passenger" begin="2700" end="3600" number="61" departLane="best" departSpeed="max">
    <route edges="-50758 -57446" />
  </flow>
  <flow id="demo_10_morning_peak_04_east_left" type="demo_10_official_passenger" begin="3600" end="4500" number="123" departLane="best" departSpeed="max">
    <route edges="-50726 -57487" />
  </flow>
  <flow id="demo_10_morning_peak_04_east_through" type="demo_10_official_passenger" begin="3600" end="4500" number="41" departLane="best" departSpeed="max">
    <route edges="-50726 -50725" />
  </flow>
  <flow id="demo_10_morning_peak_04_west_through" type="demo_10_official_passenger" begin="3600" end="4500" number="57" departLane="best" departSpeed="max">
    <route edges="-57445 -57446" />
  </flow>
  <flow id="demo_10_morning_peak_04_west_right" type="demo_10_official_passenger" begin="3600" end="4500" number="72" departLane="best" departSpeed="max">
    <route edges="-57445 -57487" />
  </flow>
  <flow id="demo_10_morning_peak_04_south_left" type="demo_10_official_passenger" begin="3600" end="4500" number="93" departLane="best" departSpeed="max">
    <route edges="-50758 -50725" />
  </flow>
  <flow id="demo_10_morning_peak_04_south_right" type="demo_10_official_passenger" begin="3600" end="4500" number="60" departLane="best" departSpeed="max">
    <route edges="-50758 -57446" />
  </flow>
  <flow id="demo_10_morning_peak_05_east_left" type="demo_10_official_passenger" begin="4500" end="5400" number="122" departLane="best" departSpeed="max">
    <route edges="-50726 -57487" />
  </flow>
  <flow id="demo_10_morning_peak_05_east_through" type="demo_10_official_passenger" begin="4500" end="5400" number="44" departLane="best" departSpeed="max">
    <route edges="-50726 -50725" />
  </flow>
  <flow id="demo_10_morning_peak_05_west_through" type="demo_10_official_passenger" begin="4500" end="5400" number="58" departLane="best" departSpeed="max">
    <route edges="-57445 -57446" />
  </flow>
  <flow id="demo_10_morning_peak_05_west_right" type="demo_10_official_passenger" begin="4500" end="5400" number="77" departLane="best" departSpeed="max">
    <route edges="-57445 -57487" />
  </flow>
  <flow id="demo_10_morning_peak_05_south_left" type="demo_10_official_passenger" begin="4500" end="5400" number="94" departLane="best" departSpeed="max">
    <route edges="-50758 -50725" />
  </flow>
  <flow id="demo_10_morning_peak_05_south_right" type="demo_10_official_passenger" begin="4500" end="5400" number="58" departLane="best" departSpeed="max">
    <route edges="-50758 -57446" />
  </flow>
  <flow id="demo_10_morning_peak_06_east_left" type="demo_10_official_passenger" begin="5400" end="6300" number="122" departLane="best" departSpeed="max">
    <route edges="-50726 -57487" />
  </flow>
  <flow id="demo_10_morning_peak_06_east_through" type="demo_10_official_passenger" begin="5400" end="6300" number="43" departLane="best" departSpeed="max">
    <route edges="-50726 -50725" />
  </flow>
  <flow id="demo_10_morning_peak_06_west_through" type="demo_10_official_passenger" begin="5400" end="6300" number="56" departLane="best" departSpeed="max">
    <route edges="-57445 -57446" />
  </flow>
  <flow id="demo_10_morning_peak_06_west_right" type="demo_10_official_passenger" begin="5400" end="6300" number="76" departLane="best" departSpeed="max">
    <route edges="-57445 -57487" />
  </flow>
  <flow id="demo_10_morning_peak_06_south_left" type="demo_10_official_passenger" begin="5400" end="6300" number="95" departLane="best" departSpeed="max">
    <route edges="-50758 -50725" />
  </flow>
  <flow id="demo_10_morning_peak_06_south_right" type="demo_10_official_passenger" begin="5400" end="6300" number="61" departLane="best" departSpeed="max">
    <route edges="-50758 -57446" />
  </flow>
  <flow id="demo_10_morning_peak_07_east_left" type="demo_10_official_passenger" begin="6300" end="7200" number="119" departLane="best" departSpeed="max">
    <route edges="-50726 -57487" />
  </flow>
  <flow id="demo_10_morning_peak_07_east_through" type="demo_10_official_passenger" begin="6300" end="7200" number="44" departLane="best" departSpeed="max">
    <route edges="-50726 -50725" />
  </flow>
  <flow id="demo_10_morning_peak_07_west_through" type="demo_10_official_passenger" begin="6300" end="7200" number="54" departLane="best" departSpeed="max">
    <route edges="-57445 -57446" />
  </flow>
  <flow id="demo_10_morning_peak_07_west_right" type="demo_10_official_passenger" begin="6300" end="7200" number="73" departLane="best" departSpeed="max">
    <route edges="-57445 -57487" />
  </flow>
  <flow id="demo_10_morning_peak_07_south_left" type="demo_10_official_passenger" begin="6300" end="7200" number="93" departLane="best" departSpeed="max">
    <route edges="-50758 -50725" />
  </flow>
  <flow id="demo_10_morning_peak_07_south_right" type="demo_10_official_passenger" begin="6300" end="7200" number="63" departLane="best" departSpeed="max">
    <route edges="-50758 -57446" />
  </flow>
</routes>