<?xml version='1.0' encoding='utf-8'?>
<additional>
  <tlLogic id="4162" type="static" programID="demo_10_morning_peak" offset="0">
    <phase duration="47" state="grgGGr" name="p1_green" />
    <phase duration="3" state="grgyyr" name="p1_yellow" />
    <phase duration="2" state="grgrrr" name="p1_clearance" />
    <phase duration="63" state="gggrrg" name="p2_green" />
    <phase duration="3" state="gygrry" name="p2_yellow" />
    <phase duration="2" state="grgrrr" name="p2_clearance" />
  </tlLogic>
</additional>