<?xml version='1.0' encoding='utf-8'?>
<additional>
  <tlLogic id="4427" type="static" programID="demo_1_morning_peak" offset="0">
    <phase duration="38" state="grrrrrrggGGrrrgrrrrrgGGrrr" name="p1_green" />
    <phase duration="3" state="grrrrrrggyyrrrgrrrrrgyyrrr" name="p1_yellow" />
    <phase duration="2" state="grrrrrrggrrrrrgrrrrrgrrrrr" name="p1_clearance" />
    <phase duration="32" state="grrrrrrggrrGGGgrrrrrgrrGGG" name="p2_green" />
    <phase duration="3" state="grrrrrrggrryyygrrrrrgrryyy" name="p2_yellow" />
    <phase duration="2" state="grrrrrrggrrrrrgrrrrrgrrrrr" name="p2_clearance" />
    <phase duration="32" state="gGGGGrrggrrrrrgGGGrrgrrrrr" name="p3_green" />
    <phase duration="3" state="gyyyyrrggrrrrrgyyyrrgrrrrr" name="p3_yellow" />
    <phase duration="2" state="grrrrrrggrrrrrgrrrrrgrrrrr" name="p3_clearance" />
    <phase duration="38" state="grrrrGGggrrrrrgrrrGGgrrrrr" name="p4_green" />
    <phase duration="3" state="grrrryyggrrrrrgrrryygrrrrr" name="p4_yellow" />
    <phase duration="2" state="grrrrrrggrrrrrgrrrrrgrrrrr" name="p4_clearance" />
  </tlLogic>
</additional>