<?xml version='1.0' encoding='utf-8'?>
<additional>
  <tlLogic id="4427" type="static" programID="demo_1_morning_peak" offset="0">
    <phase duration="38" state="grrrgGrgrrrgGr" name="p1_green" />
    <phase duration="3" state="grrrgyrgrrrgyr" name="p1_yellow" />
    <phase duration="2" state="grrrgrrgrrrgrr" name="p1_clearance" />
    <phase duration="32" state="grrrgrGgrrrgrG" name="p2_green" />
    <phase duration="3" state="grrrgrygrrrgry" name="p2_yellow" />
    <phase duration="2" state="grrrgrrgrrrgrr" name="p2_clearance" />
    <phase duration="32" state="gGGrgrrgGGrgrr" name="p3_green" />
    <phase duration="3" state="gyyrgrrgyyrgrr" name="p3_yellow" />
    <phase duration="2" state="grrrgrrgrrrgrr" name="p3_clearance" />
    <phase duration="38" state="grrGgrrgrrGgrr" name="p4_green" />
    <phase duration="3" state="grrygrrgrrygrr" name="p4_yellow" />
    <phase duration="2" state="grrrgrrgrrrgrr" name="p4_clearance" />
  </tlLogic>
</additional>