<?xml version='1.0' encoding='utf-8'?>
<additional>
  <tlLogic id="3702" type="static" programID="demo_17_morning_peak" offset="0">
    <phase duration="58" state="Ggrrrrrrrg" name="p1_green" />
    <phase duration="3" state="ygrrrrrrrg" name="p1_yellow" />
    <phase duration="32" state="rgrgGGrGGg" name="p2_green" />
    <phase duration="3" state="rgryyyryyg" name="p2_yellow" />
  </tlLogic>
</additional>