<?xml version='1.0' encoding='utf-8'?>
<routes>
  <vType id="demo_18_official_passenger" vClass="passenger" emissionClass="HBEFA3/PC_G_EU4" accel="2.6" decel="4.5" sigma="0.5" length="5" width="1.8" minGap="2.5" maxSpeed="13.9" />
  <flow id="demo_18_off_peak_00_southwest_left" type="demo_18_official_passenger" begin="0" end="900" number="30" departLane="best" departSpeed="max">
    <route edges="-57077 -57005" />
  </flow>
  <flow id="demo_18_off_peak_00_southwest_through" type="demo_18_official_passenger" begin="0" end="900" number="78" departLane="best" departSpeed="max">
    <route edges="-57077 -57058" />
  </flow>
  <flow id="demo_18_off_peak_00_southwest_right" type="demo_18_official_passenger" begin="0" end="900" number="69" departLane="best" departSpeed="max">
    <route edges="-57077 -56009" />
  </flow>
  <flow id="demo_18_off_peak_00_southeast_left" type="demo_18_official_passenger" begin="0" end="900" number="53" departLane="best" departSpeed="max">
    <route edges="-57004 -56831" />
  </flow>
  <flow id="demo_18_off_peak_00_southeast_through" type="demo_18_official_passenger" begin="0" end="900" number="72" departLane="best" departSpeed="max">
    <route edges="-57004 -57005" />
  </flow>
  <flow id="demo_18_off_peak_00_southeast_right" type="demo_18_official_passenger" begin="0" end="900" number="32" departLane="best" departSpeed="max">
    <route edges="-57004 -57058" />
  </flow>
  <flow id="demo_18_off_peak_00_northwest_left" type="demo_18_official_passenger" begin="0" end="900" number="91" departLane="best" departSpeed="max">
    <route edges="-56004 -57058" />
  </flow>
  <flow id="demo_18_off_peak_00_northwest_through" type="demo_18_official_passenger" begin="0" end="900" number="23" departLane="best" departSpeed="max">
    <route edges="-56004 -56009" />
  </flow>
  <flow id="demo_18_off_peak_00_northwest_right" type="demo_18_official_passenger" begin="0" end="900" number="32" departLane="best" departSpeed="max">
    <route edges="-56004 -56831" />
  </flow>
  <flow id="demo_18_off_peak_00_northeast_left" type="demo_18_official_passenger" begin="0" end="900" number="98" departLane="best" departSpeed="max">
    <route edges="-56830 -56009" />
  </flow>
  <flow id="demo_18_off_peak_00_northeast_through" type="demo_18_official_passenger" begin="0" end="900" number="74" departLane="best" departSpeed="max">
    <route edges="-56830 -56831" />
  </flow>
  <flow id="demo_18_off_peak_00_northeast_right" type="demo_18_official_passenger" begin="0" end="900" number="30" departLane="best" departSpeed="max">
    <route edges="-56830 -57005" />
  </flow>
  <flow id="demo_18_off_peak_01_southwest_left" type="demo_18_official_passenger" begin="900" end="1800" number="34" departLane="best" departSpeed="max">
    <route edges="-57077 -57005" />
  </flow>
  <flow id="demo_18_off_peak_01_southwest_through" type="demo_18_official_passenger" begin="900" end="1800" number="82" departLane="best" departSpeed="max">
    <route edges="-57077 -57058" />
  </flow>
  <flow id="demo_18_off_peak_01_southwest_right" type="demo_18_official_passenger" begin="900" end="1800" number="53" departLane="best" departSpeed="max">
    <route edges="-57077 -56009" />
  </flow>
  <flow id="demo_18_off_peak_01_southeast_left" type="demo_18_official_passenger" begin="900" end="1800" number="49" departLane="best" departSpeed="max">
    <route edges="-57004 -56831" />
  </flow>
  <flow id="demo_18_off_peak_01_southeast_through" type="demo_18_official_passenger" begin="900" end="1800" number="68" departLane="best" departSpeed="max">
    <route edges="-57004 -57005" />
  </flow>
  <flow id="demo_18_off_peak_01_southeast_right" type="demo_18_official_passenger" begin="900" end="1800" number="29" departLane="best" departSpeed="max">
    <route edges="-57004 -57058" />
  </flow>
  <flow id="demo_18_off_peak_01_northwest_left" type="demo_18_official_passenger" begin="900" end="1800" number="89" departLane="best" departSpeed="max">
    <route edges="-56004 -57058" />
  </flow>
  <flow id="demo_18_off_peak_01_northwest_through" type="demo_18_official_passenger" begin="900" end="1800" number="19" departLane="best" departSpeed="max">
    <route edges="-56004 -56009" />
  </flow>
  <flow id="demo_18_off_peak_01_northwest_right" type="demo_18_official_passenger" begin="900" end="1800" number="29" departLane="best" departSpeed="max">
    <route edges="-56004 -56831" />
  </flow>
  <flow id="demo_18_off_peak_01_northeast_left" type="demo_18_official_passenger" begin="900" end="1800" number="102" departLane="best" departSpeed="max">
    <route edges="-56830 -56009" />
  </flow>
  <flow id="demo_18_off_peak_01_northeast_through" type="demo_18_official_passenger" begin="900" end="1800" number="69" departLane="best" departSpeed="max">
    <route edges="-56830 -56831" />
  </flow>
  <flow id="demo_18_off_peak_01_northeast_right" type="demo_18_official_passenger" begin="900" end="1800" number="26" departLane="best" departSpeed="max">
    <route edges="-56830 -57005" />
  </flow>
  <flow id="demo_18_off_peak_02_southwest_left" type="demo_18_official_passenger" begin="1800" end="2700" number="31" departLane="best" departSpeed="max">
    <route edges="-57077 -57005" />
  </flow>
  <flow id="demo_18_off_peak_02_southwest_through" type="demo_18_official_passenger" begin="1800" end="2700" number="75" departLane="best" departSpeed="max">
    <route edges="-57077 -57058" />
  </flow>
  <flow id="demo_18_off_peak_02_southwest_right" type="demo_18_official_passenger" begin="1800" end="2700" number="66" departLane="best" departSpeed="max">
    <route edges="-57077 -56009" />
  </flow>
  <flow id="demo_18_off_peak_02_southeast_left" type="demo_18_official_passenger" begin="1800" end="2700" number="56" departLane="best" departSpeed="max">
    <route edges="-57004 -56831" />
  </flow>
  <flow id="demo_18_off_peak_02_southeast_through" type="demo_18_official_passenger" begin="1800" end="2700" number="75" departLane="best" departSpeed="max">
    <route edges="-57004 -57005" />
  </flow>
  <flow id="demo_18_off_peak_02_southeast_right" type="demo_18_official_passenger" begin="1800" end="2700" number="35" departLane="best" departSpeed="max">
    <route edges="-57004 -57058" />
  </flow>
  <flow id="demo_18_off_peak_02_northwest_left" type="demo_18_official_passenger" begin="1800" end="2700" number="94" departLane="best" departSpeed="max">
    <route edges="-56004 -57058" />
  </flow>
  <flow id="demo_18_off_peak_02_northwest_through" type="demo_18_official_passenger" begin="1800" end="2700" number="22" departLane="best" departSpeed="max">
    <route edges="-56004 -56009" />
  </flow>
  <flow id="demo_18_off_peak_02_northwest_right" type="demo_18_official_passenger" begin="1800" end="2700" number="34" departLane="best" departSpeed="max">
    <route edges="-56004 -56831" />
  </flow>
  <flow id="demo_18_off_peak_02_northeast_left" type="demo_18_official_passenger" begin="1800" end="2700" number="95" departLane="best" departSpeed="max">
    <route edges="-56830 -56009" />
  </flow>
  <flow id="demo_18_off_peak_02_northeast_through" type="demo_18_official_passenger" begin="1800" end="2700" number="77" departLane="best" departSpeed="max">
    <route edges="-56830 -56831" />
  </flow>
  <flow id="demo_18_off_peak_02_northeast_right" type="demo_18_official_passenger" begin="1800" end="2700" number="33" departLane="best" departSpeed="max">
    <route edges="-56830 -57005" />
  </flow>
  <flow id="demo_18_off_peak_03_southwest_left" type="demo_18_official_passenger" begin="2700" end="3600" number="35" departLane="best" departSpeed="max">
    <route edges="-57077 -57005" />
  </flow>
  <flow id="demo_18_off_peak_03_southwest_through" type="demo_18_official_passenger" begin="2700" end="3600" number="84" departLane="best" departSpeed="max">
    <route edges="-57077 -57058" />
  </flow>
  <flow id="demo_18_off_peak_03_southwest_right" type="demo_18_official_passenger" begin="2700" end="3600" number="58" departLane="best" departSpeed="max">
    <route edges="-57077 -56009" />
  </flow>
  <flow id="demo_18_off_peak_03_southeast_left" type="demo_18_official_passenger" begin="2700" end="3600" number="47" departLane="best" departSpeed="max">
    <route edges="-57004 -56831" />
  </flow>
  <flow id="demo_18_off_peak_03_southeast_through" type="demo_18_official_passenger" begin="2700" end="3600" number="66" departLane="best" departSpeed="max">
    <route edges="-57004 -57005" />
  </flow>
  <flow id="demo_18_off_peak_03_southeast_right" type="demo_18_official_passenger" begin="2700" end="3600" number="27" departLane="best" departSpeed="max">
    <route edges="-57004 -57058" />
  </flow>
  <flow id="demo_18_off_peak_03_northwest_left" type="demo_18_official_passenger" begin="2700" end="3600" number="87" departLane="best" departSpeed="max">
    <route edges="-56004 -57058" />
  </flow>
  <flow id="demo_18_off_peak_03_northwest_through" type="demo_18_official_passenger" begin="2700" end="3600" number="18" departLane="best" departSpeed="max">
    <route edges="-56004 -56009" />
  </flow>
  <flow id="demo_18_off_peak_03_northwest_right" type="demo_18_official_passenger" begin="2700" end="3600" number="30" departLane="best" departSpeed="max">
    <route edges="-56004 -56831" />
  </flow>
  <flow id="demo_18_off_peak_03_northeast_left" type="demo_18_official_passenger" begin="2700" end="3600" number="106" departLane="best" departSpeed="max">
    <route edges="-56830 -56009" />
  </flow>
  <flow id="demo_18_off_peak_03_northeast_through" type="demo_18_official_passenger" begin="2700" end="3600" number="66" departLane="best" departSpeed="max">
    <route edges="-56830 -56831" />
  </flow>
  <flow id="demo_18_off_peak_03_northeast_right" type="demo_18_official_passenger" begin="2700" end="3600" number="25" departLane="best" departSpeed="max">
    <route edges="-56830 -57005" />
  </flow>
  <flow id="demo_18_off_peak_04_southwest_left" type="demo_18_official_passenger" begin="3600" end="4500" number="34" departLane="best" departSpeed="max">
    <route edges="-57077 -57005" />
  </flow>
  <flow id="demo_18_off_peak_04_southwest_through" type="demo_18_official_passenger" begin="3600" end="4500" number="105" departLane="best" departSpeed="max">
    <route edges="-57077 -57058" />
  </flow>
  <flow id="demo_18_off_peak_04_southwest_right" type="demo_18_official_passenger" begin="3600" end="4500" number="61" departLane="best" departSpeed="max">
    <route edges="-57077 -56009" />
  </flow>
  <flow id="demo_18_off_peak_04_southeast_left" type="demo_18_official_passenger" begin="3600" end="4500" number="51" departLane="best" departSpeed="max">
    <route edges="-57004 -56831" />
  </flow>
  <flow id="demo_18_off_peak_04_southeast_through" type="demo_18_official_passenger" begin="3600" end="4500" number="70" departLane="best" departSpeed="max">
    <route edges="-57004 -57005" />
  </flow>
  <flow id="demo_18_off_peak_04_southeast_right" type="demo_18_official_passenger" begin="3600" end="4500" number="31" departLane="best" departSpeed="max">
    <route edges="-57004 -57058" />
  </flow>
  <flow id="demo_18_off_peak_04_northwest_left" type="demo_18_official_passenger" begin="3600" end="4500" number="90" departLane="best" departSpeed="max">
    <route edges="-56004 -57058" />
  </flow>
  <flow id="demo_18_off_peak_04_northwest_through" type="demo_18_official_passenger" begin="3600" end="4500" number="24" departLane="best" departSpeed="max">
    <route edges="-56004 -56009" />
  </flow>
  <flow id="demo_18_off_peak_04_northwest_right" type="demo_18_official_passenger" begin="3600" end="4500" number="27" departLane="best" departSpeed="max">
    <route edges="-56004 -56831" />
  </flow>
  <flow id="demo_18_off_peak_04_northeast_left" type="demo_18_official_passenger" begin="3600" end="4500" number="93" departLane="best" departSpeed="max">
    <route edges="-56830 -56009" />
  </flow>
  <flow id="demo_18_off_peak_04_northeast_through" type="demo_18_official_passenger" begin="3600" end="4500" number="71" departLane="best" departSpeed="max">
    <route edges="-56830 -56831" />
  </flow>
  <flow id="demo_18_off_peak_04_northeast_right" type="demo_18_official_passenger" begin="3600" end="4500" number="28" departLane="best" departSpeed="max">
    <route edges="-56830 -57005" />
  </flow>
  <flow id="demo_18_off_peak_05_southwest_left" type="demo_18_official_passenger" begin="4500" end="5400" number="25" departLane="best" departSpeed="max">
    <route edges="-57077 -57005" />
  </flow>
  <flow id="demo_18_off_peak_05_southwest_through" type="demo_18_official_passenger" begin="4500" end="5400" number="80" departLane="best" departSpeed="max">
    <route edges="-57077 -57058" />
  </flow>
  <flow id="demo_18_off_peak_05_southwest_right" type="demo_18_official_passenger" begin="4500" end="5400" number="62" departLane="best" departSpeed="max">
    <route edges="-57077 -56009" />
  </flow>
  <flow id="demo_18_off_peak_05_southeast_left" type="demo_18_official_passenger" begin="4500" end="5400" number="45" departLane="best" departSpeed="max">
    <route edges="-57004 -56831" />
  </flow>
  <flow id="demo_18_off_peak_05_southeast_through" type="demo_18_official_passenger" begin="4500" end="5400" number="65" departLane="best" departSpeed="max">
    <route edges="-57004 -57005" />
  </flow>
  <flow id="demo_18_off_peak_05_southeast_right" type="demo_18_official_passenger" begin="4500" end="5400" number="28" departLane="best" departSpeed="max">
    <route edges="-57004 -57058" />
  </flow>
  <flow id="demo_18_off_peak_05_northwest_left" type="demo_18_official_passenger" begin="4500" end="5400" number="100" departLane="best" departSpeed="max">
    <route edges="-56004 -57058" />
  </flow>
  <flow id="demo_18_off_peak_05_northwest_through" type="demo_18_official_passenger" begin="4500" end="5400" number="17" departLane="best" departSpeed="max">
    <route edges="-56004 -56009" />
  </flow>
  <flow id="demo_18_off_peak_05_northwest_right" type="demo_18_official_passenger" begin="4500" end="5400" number="31" departLane="best" departSpeed="max">
    <route edges="-56004 -56831" />
  </flow>
  <flow id="demo_18_off_peak_05_northeast_left" type="demo_18_official_passenger" begin="4500" end="5400" number="97" departLane="best" departSpeed="max">
    <route edges="-56830 -56009" />
  </flow>
  <flow id="demo_18_off_peak_05_northeast_through" type="demo_18_official_passenger" begin="4500" end="5400" number="68" departLane="best" departSpeed="max">
    <route edges="-56830 -56831" />
  </flow>
  <flow id="demo_18_off_peak_05_northeast_right" type="demo_18_official_passenger" begin="4500" end="5400" number="27" departLane="best" departSpeed="max">
    <route edges="-56830 -57005" />
  </flow>
  <flow id="demo_18_off_peak_06_southwest_left" type="demo_18_official_passenger" begin="5400" end="6300" number="33" departLane="best" departSpeed="max">
    <route edges="-57077 -57005" />
  </flow>
  <flow id="demo_18_off_peak_06_southwest_through" type="demo_18_official_passenger" begin="5400" end="6300" number="76" departLane="best" departSpeed="max">
    <route edges="-57077 -57058" />
  </flow>
  <flow id="demo_18_off_peak_06_southwest_right" type="demo_18_official_passenger" begin="5400" end="6300" number="47" departLane="best" departSpeed="max">
    <route edges="-57077 -56009" />
  </flow>
  <flow id="demo_18_off_peak_06_southeast_left" type="demo_18_official_passenger" begin="5400" end="6300" number="50" departLane="best" departSpeed="max">
    <route edges="-57004 -56831" />
  </flow>
  <flow id="demo_18_off_peak_06_southeast_through" type="demo_18_official_passenger" begin="5400" end="6300" number="78" departLane="best" departSpeed="max">
    <route edges="-57004 -57005" />
  </flow>
  <flow id="demo_18_off_peak_06_southeast_right" type="demo_18_official_passenger" begin="5400" end="6300" number="33" departLane="best" departSpeed="max">
    <route edges="-57004 -57058" />
  </flow>
  <flow id="demo_18_off_peak_06_northwest_left" type="demo_18_official_passenger" begin="5400" end="6300" number="92" departLane="best" departSpeed="max">
    <route edges="-56004 -57058" />
  </flow>
  <flow id="demo_18_off_peak_06_northwest_through" type="demo_18_official_passenger" begin="5400" end="6300" number="21" departLane="best" departSpeed="max">
    <route edges="-56004 -56009" />
  </flow>
  <flow id="demo_18_off_peak_06_northwest_right" type="demo_18_official_passenger" begin="5400" end="6300" number="28" departLane="best" departSpeed="max">
    <route edges="-56004 -56831" />
  </flow>
  <flow id="demo_18_off_peak_06_northeast_left" type="demo_18_official_passenger" begin="5400" end="6300" number="143" departLane="best" departSpeed="max">
    <route edges="-56830 -56009" />
  </flow>
  <flow id="demo_18_off_peak_06_northeast_through" type="demo_18_official_passenger" begin="5400" end="6300" number="73" departLane="best" departSpeed="max">
    <route edges="-56830 -56831" />
  </flow>
  <flow id="demo_18_off_peak_06_northeast_right" type="demo_18_official_passenger" begin="5400" end="6300" number="31" departLane="best" departSpeed="max">
    <route edges="-56830 -57005" />
  </flow>
  <flow id="demo_18_off_peak_07_southwest_left" type="demo_18_official_passenger" begin="6300" end="7200" number="32" departLane="best" departSpeed="max">
    <route edges="-57077 -57005" />
  </flow>
  <flow id="demo_18_off_peak_07_southwest_through" type="demo_18_official_passenger" begin="6300" end="7200" number="73" departLane="best" departSpeed="max">
    <route edges="-57077 -57058" />
  </flow>
  <flow id="demo_18_off_peak_07_southwest_right" type="demo_18_official_passenger" begin="6300" end="7200" number="59" departLane="best" departSpeed="max">
    <route edges="-57077 -56009" />
  </flow>
  <flow id="demo_18_off_peak_07_southeast_left" type="demo_18_official_passenger" begin="6300" end="7200" number="73" departLane="best" departSpeed="max">
    <route edges="-57004 -56831" />
  </flow>
  <flow id="demo_18_off_peak_07_southeast_through" type="demo_18_official_passenger" begin="6300" end="7200" number="74" departLane="best" departSpeed="max">
    <route edges="-57004 -57005" />
  </flow>
  <flow id="demo_18_off_peak_07_southeast_right" type="demo_18_official_passenger" begin="6300" end="7200" number="47" departLane="best" departSpeed="max">
    <route edges="-57004 -57058" />
  </flow>
  <flow id="demo_18_off_peak_07_northwest_left" type="demo_18_official_passenger" begin="6300" end="7200" number="88" departLane="best" departSpeed="max">
    <route edges="-56004 -57058" />
  </flow>
  <flow id="demo_18_off_peak_07_northwest_through" type="demo_18_official_passenger" begin="6300" end="7200" number="39" departLane="best" departSpeed="max">
    <route edges="-56004 -56009" />
  </flow>
  <flow id="demo_18_off_peak_07_northwest_right" type="demo_18_official_passenger" begin="6300" end="7200" number="45" departLane="best" departSpeed="max">
    <route edges="-56004 -56831" />
  </flow>
  <flow id="demo_18_off_peak_07_northeast_left" type="demo_18_official_passenger" begin="6300" end="7200" number="101" departLane="best" departSpeed="max">
    <route edges="-56830 -56009" />
  </flow>
  <flow id="demo_18_off_peak_07_northeast_through" type="demo_18_official_passenger" begin="6300" end="7200" number="89" departLane="best" departSpeed="max">
    <route edges="-56830 -56831" />
  </flow>
  <flow id="demo_18_off_peak_07_northeast_right" type="demo_18_official_passenger" begin="6300" end="7200" number="46" departLane="best" departSpeed="max">
    <route edges="-56830 -57005" />
  </flow>
</routes>