<?xml version='1.0' encoding='utf-8'?>
<additional>
  <tlLogic id="182" type="static" programID="demo_12_morning_peak" offset="0">
    <phase duration="55" state="ggrrrrgggGGrrggrrrrrggGGrrr" name="p1_green" />
    <phase duration="3" state="ggrrrrgggyyrrggrrrrrggyyrrr" name="p1_yellow" />
    <phase duration="2" state="ggrrrrgggrrrrggrrrrrggrrrrr" name="p1_clearance" />
    <phase duration="30" state="ggrrrrgggrrGGggrrrrrggrrGGG" name="p2_green" />
    <phase duration="3" state="ggrrrrgggrryyggrrrrrggrryyy" name="p2_yellow" />
    <phase duration="2" state="ggrrrrgggrrrrggrrrrrggrrrrr" name="p2_clearance" />
    <phase duration="50" state="ggGGrrgggrrrrggGGGrrggrrrrr" name="p3_green" />
    <phase duration="3" state="ggyyrrgggrrrrggyyyrrggrrrrr" name="p3_yellow" />
    <phase duration="2" state="ggrrrrgggrrrrggrrrrrggrrrrr" name="p3_clearance" />
    <phase duration="15" state="ggrrgggggrrrrggrrrggggrrrrr" name="p4_green" />
    <phase duration="3" state="ggrryygggrrrrggrrryyggrrrrr" name="p4_yellow" />
    <phase duration="2" state="ggrrrrgggrrrrggrrrrrggrrrrr" name="p4_clearance" />
  </tlLogic>
</additional>