<?xml version='1.0' encoding='utf-8'?>
<additional>
  <tlLogic id="182" type="static" programID="demo_12_morning_peak" offset="0">
    <phase duration="55" state="grrrgGGrgrrrgGGr" name="p1_green" />
    <phase duration="3" state="grrrgyyrgrrrgyyr" name="p1_yellow" />
    <phase duration="2" state="grrrgrrrgrrrgrrr" name="p1_clearance" />
    <phase duration="30" state="grrrgrrGgrrrgrrG" name="p2_green" />
    <phase duration="3" state="grrrgrrygrrrgrry" name="p2_yellow" />
    <phase duration="2" state="grrrgrrrgrrrgrrr" name="p2_clearance" />
    <phase duration="50" state="gGGrgrrrgGGrgrrr" name="p3_green" />
    <phase duration="3" state="gyyrgrrrgyyrgrrr" name="p3_yellow" />
    <phase duration="2" state="grrrgrrrgrrrgrrr" name="p3_clearance" />
    <phase duration="15" state="grrggrrrgrrggrrr" name="p4_green" />
    <phase duration="3" state="grrygrrrgrrygrrr" name="p4_yellow" />
    <phase duration="2" state="grrrgrrrgrrrgrrr" name="p4_clearance" />
  </tlLogic>
</additional>