<?xml version='1.0' encoding='utf-8'?>
<routes>
  <vType id="demo_7_official_passenger" vClass="passenger" emissionClass="HBEFA3/PC_G_EU4" accel="2.6" decel="4.5" sigma="0.5" length="5" width="1.8" minGap="2.5" maxSpeed="13.9" />
  <flow id="demo_7_evening_peak_00_east_left" type="demo_7_official_passenger" begin="0" end="900" number="32" departLane="best" departSpeed="max">
    <route edges="-51953 -46216" />
  </flow>
  <flow id="demo_7_evening_peak_00_east_right" type="demo_7_official_passenger" begin="0" end="900" number="135" departLane="best" departSpeed="max">
    <route edges="-51953 -51872" />
  </flow>
  <flow id="demo_7_evening_peak_00_west_left" type="demo_7_official_passenger" begin="0" end="900" number="78" departLane="best" departSpeed="max">
    <route edges="-46217 -46293" />
  </flow>
  <flow id="demo_7_evening_peak_00_west_through" type="demo_7_official_passenger" begin="0" end="900" number="79" departLane="best" departSpeed="max">
    <route edges="-46217 -46216" />
  </flow>
  <flow id="demo_7_evening_peak_00_south_through" type="demo_7_official_passenger" begin="0" end="900" number="134" departLane="best" departSpeed="max">
    <route edges="-51871 -51872" />
  </flow>
  <flow id="demo_7_evening_peak_00_south_right" type="demo_7_official_passenger" begin="0" end="900" number="57" departLane="best" departSpeed="max">
    <route edges="-51871 -46293" />
  </flow>
  <flow id="demo_7_evening_peak_01_east_left" type="demo_7_official_passenger" begin="900" end="1800" number="34" departLane="best" departSpeed="max">
    <route edges="-51953 -46216" />
  </flow>
  <flow id="demo_7_evening_peak_01_east_right" type="demo_7_official_passenger" begin="900" end="1800" number="137" departLane="best" departSpeed="max">
    <route edges="-51953 -51872" />
  </flow>
  <flow id="demo_7_evening_peak_01_west_left" type="demo_7_official_passenger" begin="900" end="1800" number="80" departLane="best" departSpeed="max">
    <route edges="-46217 -46293" />
  </flow>
  <flow id="demo_7_evening_peak_01_west_through" type="demo_7_official_passenger" begin="900" end="1800" number="77" departLane="best" departSpeed="max">
    <route edges="-46217 -46216" />
  </flow>
  <flow id="demo_7_evening_peak_01_south_through" type="demo_7_official_passenger" begin="900" end="1800" number="133" departLane="best" departSpeed="max">
    <route edges="-51871 -51872" />
  </flow>
  <flow id="demo_7_evening_peak_01_south_right" type="demo_7_official_passenger" begin="900" end="1800" number="58" departLane="best" departSpeed="max">
    <route edges="-51871 -46293" />
  </flow>
  <flow id="demo_7_evening_peak_02_east_left" type="demo_7_official_passenger" begin="1800" end="2700" number="35" departLane="best" departSpeed="max">
    <route edges="-51953 -46216" />
  </flow>
  <flow id="demo_7_evening_peak_02_east_right" type="demo_7_official_passenger" begin="1800" end="2700" number="136" departLane="best" departSpeed="max">
    <route edges="-51953 -51872" />
  </flow>
  <flow id="demo_7_evening_peak_02_west_left" type="demo_7_official_passenger" begin="1800" end="2700" number="79" departLane="best" departSpeed="max">
    <route edges="-46217 -46293" />
  </flow>
  <flow id="demo_7_evening_peak_02_west_through" type="demo_7_official_passenger" begin="1800" end="2700" number="80" departLane="best" departSpeed="max">
    <route edges="-46217 -46216" />
  </flow>
  <flow id="demo_7_evening_peak_02_south_through" type="demo_7_official_passenger" begin="1800" end="2700" number="135" departLane="best" departSpeed="max">
    <route edges="-51871 -51872" />
  </flow>
  <flow id="demo_7_evening_peak_02_south_right" type="demo_7_official_passenger" begin="1800" end="2700" number="56" departLane="best" departSpeed="max">
    <route edges="-51871 -46293" />
  </flow>
  <flow id="demo_7_evening_peak_03_east_left" type="demo_7_official_passenger" begin="2700" end="3600" number="31" departLane="best" departSpeed="max">
    <route edges="-51953 -46216" />
  </flow>
  <flow id="demo_7_evening_peak_03_east_right" type="demo_7_official_passenger" begin="2700" end="3600" number="134" departLane="best" departSpeed="max">
    <route edges="-51953 -51872" />
  </flow>
  <flow id="demo_7_evening_peak_03_west_left" type="demo_7_official_passenger" begin="2700" end="3600" number="77" departLane="best" departSpeed="max">
    <route edges="-46217 -46293" />
  </flow>
  <flow id="demo_7_evening_peak_03_west_through" type="demo_7_official_passenger" begin="2700" end="3600" number="78" departLane="best" departSpeed="max">
    <route edges="-46217 -46216" />
  </flow>
  <flow id="demo_7_evening_peak_03_south_through" type="demo_7_official_passenger" begin="2700" end="3600" number="132" departLane="best" departSpeed="max">
    <route edges="-51871 -51872" />
  </flow>
  <flow id="demo_7_evening_peak_03_south_right" type="demo_7_official_passenger" begin="2700" end="3600" number="59" departLane="best" departSpeed="max">
    <route edges="-51871 -46293" />
  </flow>
  <flow id="demo_7_evening_peak_04_east_left" type="demo_7_official_passenger" begin="3600" end="4500" number="36" departLane="best" departSpeed="max">
    <route edges="-51953 -46216" />
  </flow>
  <flow id="demo_7_evening_peak_04_east_right" type="demo_7_official_passenger" begin="3600" end="4500" number="138" departLane="best" departSpeed="max">
    <route edges="-51953 -51872" />
  </flow>
  <flow id="demo_7_evening_peak_04_west_left" type="demo_7_official_passenger" begin="3600" end="4500" number="81" departLane="best" departSpeed="max">
    <route edges="-46217 -46293" />
  </flow>
  <flow id="demo_7_evening_peak_04_west_through" type="demo_7_official_passenger" begin="3600" end="4500" number="81" departLane="best" departSpeed="max">
    <route edges="-46217 -46216" />
  </flow>
  <flow id="demo_7_evening_peak_04_south_through" type="demo_7_official_passenger" begin="3600" end="4500" number="136" departLane="best" departSpeed="max">
    <route edges="-51871 -51872" />
  </flow>
  <flow id="demo_7_evening_peak_04_south_right" type="demo_7_official_passenger" begin="3600" end="4500" number="57" departLane="best" departSpeed="max">
    <route edges="-51871 -46293" />
  </flow>
  <flow id="demo_7_evening_peak_05_east_left" type="demo_7_official_passenger" begin="4500" end="5400" number="33" departLane="best" departSpeed="max">
    <route edges="-51953 -46216" />
  </flow>
  <flow id="demo_7_evening_peak_05_east_right" type="demo_7_official_passenger" begin="4500" end="5400" number="133" departLane="best" departSpeed="max">
    <route edges="-51953 -51872" />
  </flow>
  <flow id="demo_7_evening_peak_05_west_left" type="demo_7_official_passenger" begin="4500" end="5400" number="78" departLane="best" departSpeed="max">
    <route edges="-46217 -46293" />
  </flow>
  <flow id="demo_7_evening_peak_05_west_through" type="demo_7_official_passenger" begin="4500" end="5400" number="76" departLane="best" departSpeed="max">
    <route edges="-46217 -46216" />
  </flow>
  <flow id="demo_7_evening_peak_05_south_through" type="demo_7_official_passenger" begin="4500" end="5400" number="134" departLane="best" departSpeed="max">
    <route edges="-51871 -51872" />
  </flow>
  <flow id="demo_7_evening_peak_05_south_right" type="demo_7_official_passenger" begin="4500" end="5400" number="58" departLane="best" departSpeed="max">
    <route edges="-51871 -46293" />
  </flow>
  <flow id="demo_7_evening_peak_06_east_left" type="demo_7_official_passenger" begin="5400" end="6300" number="36" departLane="best" departSpeed="max">
    <route edges="-51953 -46216" />
  </flow>
  <flow id="demo_7_evening_peak_06_east_right" type="demo_7_official_passenger" begin="5400" end="6300" number="139" departLane="best" departSpeed="max">
    <route edges="-51953 -51872" />
  </flow>
  <flow id="demo_7_evening_peak_06_west_left" type="demo_7_official_passenger" begin="5400" end="6300" number="80" departLane="best" departSpeed="max">
    <route edges="-46217 -46293" />
  </flow>
  <flow id="demo_7_evening_peak_06_west_through" type="demo_7_official_passenger" begin="5400" end="6300" number="79" departLane="best" departSpeed="max">
    <route edges="-46217 -46216" />
  </flow>
  <flow id="demo_7_evening_peak_06_south_through" type="demo_7_official_passenger" begin="5400" end="6300" number="133" departLane="best" departSpeed="max">
    <route edges="-51871 -51872" />
  </flow>
  <flow id="demo_7_evening_peak_06_south_right" type="demo_7_official_passenger" begin="5400" end="6300" number="56" departLane="best" departSpeed="max">
    <route edges="-51871 -46293" />
  </flow>
  <flow id="demo_7_evening_peak_07_east_left" type="demo_7_official_passenger" begin="6300" end="7200" number="33" departLane="best" departSpeed="max">
    <route edges="-51953 -46216" />
  </flow>
  <flow id="demo_7_evening_peak_07_east_right" type="demo_7_official_passenger" begin="6300" end="7200" number="136" departLane="best" departSpeed="max">
    <route edges="-51953 -51872" />
  </flow>
  <flow id="demo_7_evening_peak_07_west_left" type="demo_7_official_passenger" begin="6300" end="7200" number="75" departLane="best" departSpeed="max">
    <route edges="-46217 -46293" />
  </flow>
  <flow id="demo_7_evening_peak_07_west_through" type="demo_7_official_passenger" begin="6300" end="7200" number="78" departLane="best" departSpeed="max">
    <route edges="-46217 -46216" />
  </flow>
  <flow id="demo_7_evening_peak_07_south_through" type="demo_7_official_passenger" begin="6300" end="7200" number="131" departLane="best" departSpeed="max">
    <route edges="-51871 -51872" />
  </flow>
  <flow id="demo_7_evening_peak_07_south_right" type="demo_7_official_passenger" begin="6300" end="7200" number="57" departLane="best" departSpeed="max">
    <route edges="-51871 -46293" />
  </flow>
</routes>