<?xml version='1.0' encoding='utf-8'?>
<routes>
  <vType id="demo_14_official_passenger" vClass="passenger" emissionClass="HBEFA3/PC_G_EU4" accel="2.6" decel="4.5" sigma="0.5" length="5" width="1.8" minGap="2.5" maxSpeed="13.9" />
  <flow id="demo_14_morning_peak_00_east_left" type="demo_14_official_passenger" begin="0" end="900" number="58" departLane="best" departSpeed="max">
    <route edges="-46786 -52203" />
  </flow>
  <flow id="demo_14_morning_peak_00_east_right" type="demo_14_official_passenger" begin="0" end="900" number="52" departLane="best" departSpeed="max">
    <route edges="-46786 -46528" />
  </flow>
  <flow id="demo_14_morning_peak_00_south_through" type="demo_14_official_passenger" begin="0" end="900" number="59" departLane="best" departSpeed="max">
    <route edges="-46529 -46528" />
  </flow>
  <flow id="demo_14_morning_peak_00_south_right" type="demo_14_official_passenger" begin="0" end="900" number="105" departLane="best" departSpeed="max">
    <route edges="-46529 -52560" />
  </flow>
  <flow id="demo_14_morning_peak_00_north_left" type="demo_14_official_passenger" begin="0" end="900" number="121" departLane="best" departSpeed="max">
    <route edges="-52202 -52560" />
  </flow>
  <flow id="demo_14_morning_peak_00_north_through" type="demo_14_official_passenger" begin="0" end="900" number="31" departLane="best" departSpeed="max">
    <route edges="-52202 -52203" />
  </flow>
  <flow id="demo_14_morning_peak_01_east_left" type="demo_14_official_passenger" begin="900" end="1800" number="55" departLane="best" departSpeed="max">
    <route edges="-46786 -52203" />
  </flow>
  <flow id="demo_14_morning_peak_01_east_right" type="demo_14_official_passenger" begin="900" end="1800" number="48" departLane="best" departSpeed="max">
    <route edges="-46786 -46528" />
  </flow>
  <flow id="demo_14_morning_peak_01_south_through" type="demo_14_official_passenger" begin="900" end="1800" number="56" departLane="best" departSpeed="max">
    <route edges="-46529 -46528" />
  </flow>
  <flow id="demo_14_morning_peak_01_south_right" type="demo_14_official_passenger" begin="900" end="1800" number="112" departLane="best" departSpeed="max">
    <route edges="-46529 -52560" />
  </flow>
  <flow id="demo_14_morning_peak_01_north_left" type="demo_14_official_passenger" begin="900" end="1800" number="118" departLane="best" departSpeed="max">
    <route edges="-52202 -52560" />
  </flow>
  <flow id="demo_14_morning_peak_01_north_through" type="demo_14_official_passenger" begin="900" end="1800" number="28" departLane="best" departSpeed="max">
    <route edges="-52202 -52203" />
  </flow>
  <flow id="demo_14_morning_peak_02_east_left" type="demo_14_official_passenger" begin="1800" end="2700" number="62" departLane="best" departSpeed="max">
    <route edges="-46786 -52203" />
  </flow>
  <flow id="demo_14_morning_peak_02_east_right" type="demo_14_official_passenger" begin="1800" end="2700" number="55" departLane="best" departSpeed="max">
    <route edges="-46786 -46528" />
  </flow>
  <flow id="demo_14_morning_peak_02_south_through" type="demo_14_official_passenger" begin="1800" end="2700" number="62" departLane="best" departSpeed="max">
    <route edges="-46529 -46528" />
  </flow>
  <flow id="demo_14_morning_peak_02_south_right" type="demo_14_official_passenger" begin="1800" end="2700" number="108" departLane="best" departSpeed="max">
    <route edges="-46529 -52560" />
  </flow>
  <flow id="demo_14_morning_peak_02_north_left" type="demo_14_official_passenger" begin="1800" end="2700" number="125" departLane="best" departSpeed="max">
    <route edges="-52202 -52560" />
  </flow>
  <flow id="demo_14_morning_peak_02_north_through" type="demo_14_official_passenger" begin="1800" end="2700" number="29" departLane="best" departSpeed="max">
    <route edges="-52202 -52203" />
  </flow>
  <flow id="demo_14_morning_peak_03_east_left" type="demo_14_official_passenger" begin="2700" end="3600" number="53" departLane="best" departSpeed="max">
    <route edges="-46786 -52203" />
  </flow>
  <flow id="demo_14_morning_peak_03_east_right" type="demo_14_official_passenger" begin="2700" end="3600" number="46" departLane="best" departSpeed="max">
    <route edges="-46786 -46528" />
  </flow>
  <flow id="demo_14_morning_peak_03_south_through" type="demo_14_official_passenger" begin="2700" end="3600" number="53" departLane="best" departSpeed="max">
    <route edges="-46529 -46528" />
  </flow>
  <flow id="demo_14_morning_peak_03_south_right" type="demo_14_official_passenger" begin="2700" end="3600" number="99" departLane="best" departSpeed="max">
    <route edges="-46529 -52560" />
  </flow>
  <flow id="demo_14_morning_peak_03_north_left" type="demo_14_official_passenger" begin="2700" end="3600" number="115" departLane="best" departSpeed="max">
    <route edges="-52202 -52560" />
  </flow>
  <flow id="demo_14_morning_peak_03_north_through" type="demo_14_official_passenger" begin="2700" end="3600" number="33" departLane="best" departSpeed="max">
    <route edges="-52202 -52203" />
  </flow>
  <flow id="demo_14_morning_peak_04_east_left" type="demo_14_official_passenger" begin="3600" end="4500" number="60" departLane="best" departSpeed="max">
    <route edges="-46786 -52203" />
  </flow>
  <flow id="demo_14_morning_peak_04_east_right" type="demo_14_official_passenger" begin="3600" end="4500" number="50" departLane="best" departSpeed="max">
    <route edges="-46786 -46528" />
  </flow>
  <flow id="demo_14_morning_peak_04_south_through" type="demo_14_official_passenger" begin="3600" end="4500" number="58" departLane="best" departSpeed="max">
    <route edges="-46529 -46528" />
  </flow>
  <flow id="demo_14_morning_peak_04_south_right" type="demo_14_official_passenger" begin="3600" end="4500" number="110" departLane="best" departSpeed="max">
    <route edges="-46529 -52560" />
  </flow>
  <flow id="demo_14_morning_peak_04_north_left" type="demo_14_official_passenger" begin="3600" end="4500" number="123" departLane="best" departSpeed="max">
    <route edges="-52202 -52560" />
  </flow>
  <flow id="demo_14_morning_peak_04_north_through" type="demo_14_official_passenger" begin="3600" end="4500" number="27" departLane="best" departSpeed="max">
    <route edges="-52202 -52203" />
  </flow>
  <flow id="demo_14_morning_peak_05_east_left" type="demo_14_official_passenger" begin="4500" end="5400" number="51" departLane="best" departSpeed="max">
    <route edges="-46786 -52203" />
  </flow>
  <flow id="demo_14_morning_peak_05_east_right" type="demo_14_official_passenger" begin="4500" end="5400" number="49" departLane="best" departSpeed="max">
    <route edges="-46786 -46528" />
  </flow>
  <flow id="demo_14_morning_peak_05_south_through" type="demo_14_official_passenger" begin="4500" end="5400" number="55" departLane="best" departSpeed="max">
    <route edges="-46529 -46528" />
  </flow>
  <flow id="demo_14_morning_peak_05_south_right" type="demo_14_official_passenger" begin="4500" end="5400" number="103" departLane="best" departSpeed="max">
    <route edges="-46529 -52560" />
  </flow>
  <flow id="demo_14_morning_peak_05_north_left" type="demo_14_official_passenger" begin="4500" end="5400" number="116" departLane="best" departSpeed="max">
    <route edges="-52202 -52560" />
  </flow>
  <flow id="demo_14_morning_peak_05_north_through" type="demo_14_official_passenger" begin="4500" end="5400" number="30" departLane="best" departSpeed="max">
    <route edges="-52202 -52203" />
  </flow>
  <flow id="demo_14_morning_peak_06_east_left" type="demo_14_official_passenger" begin="5400" end="6300" number="57" departLane="best" departSpeed="max">
    <route edges="-46786 -52203" />
  </flow>
  <flow id="demo_14_morning_peak_06_east_right" type="demo_14_official_passenger" begin="5400" end="6300" number="53" departLane="best" departSpeed="max">
    <route edges="-46786 -46528" />
  </flow>
  <flow id="demo_14_morning_peak_06_south_through" type="demo_14_official_passenger" begin="5400" end="6300" number="60" departLane="best" departSpeed="max">
    <route edges="-46529 -46528" />
  </flow>
  <flow id="demo_14_morning_peak_06_south_right" type="demo_14_official_passenger" begin="5400" end="6300" number="115" departLane="best" departSpeed="max">
    <route edges="-46529 -52560" />
  </flow>
  <flow id="demo_14_morning_peak_06_north_left" type="demo_14_official_passenger" begin="5400" end="6300" number="120" departLane="best" departSpeed="max">
    <route edges="-52202 -52560" />
  </flow>
  <flow id="demo_14_morning_peak_06_north_through" type="demo_14_official_passenger" begin="5400" end="6300" number="33" departLane="best" departSpeed="max">
    <route edges="-52202 -52203" />
  </flow>
  <flow id="demo_14_morning_peak_07_east_left" type="demo_14_official_passenger" begin="6300" end="7200" number="67" departLane="best" departSpeed="max">
    <route edges="-46786 -52203" />
  </flow>
  <flow id="demo_14_morning_peak_07_east_right" type="demo_14_official_passenger" begin="6300" end="7200" number="41" departLane="best" departSpeed="max">
    <route edges="-46786 -46528" />
  </flow>
  <flow id="demo_14_morning_peak_07_south_through" type="demo_14_official_passenger" begin="6300" end="7200" number="69" departLane="best" departSpeed="max">
    <route edges="-46529 -46528" />
  </flow>
  <flow id="demo_14_morning_peak_07_south_right" type="demo_14_official_passenger" begin="6300" end="7200" number="120" departLane="best" departSpeed="max">
    <route edges="-46529 -52560" />
  </flow>
  <flow id="demo_14_morning_peak_07_north_left" type="demo_14_official_passenger" begin="6300" end="7200" number="130" departLane="best" departSpeed="max">
    <route edges="-52202 -52560" />
  </flow>
  <flow id="demo_14_morning_peak_07_north_through" type="demo_14_official_passenger" begin="6300" end="7200" number="26" departLane="best" departSpeed="max">
    <route edges="-52202 -52203" />
  </flow>
</routes>