<?xml version='1.0' encoding='utf-8'?>
<routes>
  <vType id="demo_13_official_passenger" vClass="passenger" emissionClass="HBEFA3/PC_G_EU4" accel="2.6" decel="4.5" sigma="0.5" length="5" width="1.8" minGap="2.5" maxSpeed="13.9" />
  <flow id="demo_13_evening_peak_00_east_through" type="demo_13_official_passenger" begin="0" end="900" number="79" departLane="best" departSpeed="max">
    <route edges="-56457 -56458" />
  </flow>
  <flow id="demo_13_evening_peak_00_east_right" type="demo_13_official_passenger" begin="0" end="900" number="56" departLane="best" departSpeed="max">
    <route edges="-56457 -53030" />
  </flow>
  <flow id="demo_13_evening_peak_00_north_right" type="demo_13_official_passenger" begin="0" end="900" number="77" departLane="best" departSpeed="max">
    <route edges="-46884 -56458" />
  </flow>
  <flow id="demo_13_evening_peak_01_east_through" type="demo_13_official_passenger" begin="900" end="1800" number="72" departLane="best" departSpeed="max">
    <route edges="-56457 -56458" />
  </flow>
  <flow id="demo_13_evening_peak_01_east_right" type="demo_13_official_passenger" begin="900" end="1800" number="88" departLane="best" departSpeed="max">
    <route edges="-56457 -53030" />
  </flow>
  <flow id="demo_13_evening_peak_01_north_right" type="demo_13_official_passenger" begin="900" end="1800" number="84" departLane="best" departSpeed="max">
    <route edges="-46884 -56458" />
  </flow>
  <flow id="demo_13_evening_peak_02_east_through" type="demo_13_official_passenger" begin="1800" end="2700" number="85" departLane="best" departSpeed="max">
    <route edges="-56457 -56458" />
  </flow>
  <flow id="demo_13_evening_peak_02_east_right" type="demo_13_official_passenger" begin="1800" end="2700" number="63" departLane="best" departSpeed="max">
    <route edges="-56457 -53030" />
  </flow>
  <flow id="demo_13_evening_peak_02_north_right" type="demo_13_official_passenger" begin="1800" end="2700" number="91" departLane="best" departSpeed="max">
    <route edges="-46884 -56458" />
  </flow>
  <flow id="demo_13_evening_peak_03_east_through" type="demo_13_official_passenger" begin="2700" end="3600" number="68" departLane="best" departSpeed="max">
    <route edges="-56457 -56458" />
  </flow>
  <flow id="demo_13_evening_peak_03_east_right" type="demo_13_official_passenger" begin="2700" end="3600" number="48" departLane="best" departSpeed="max">
    <route edges="-56457 -53030" />
  </flow>
  <flow id="demo_13_evening_peak_03_north_right" type="demo_13_official_passenger" begin="2700" end="3600" number="165" departLane="best" departSpeed="max">
    <route edges="-46884 -56458" />
  </flow>
  <flow id="demo_13_evening_peak_04_east_through" type="demo_13_official_passenger" begin="3600" end="4500" number="91" departLane="best" departSpeed="max">
    <route edges="-56457 -56458" />
  </flow>
  <flow id="demo_13_evening_peak_04_east_right" type="demo_13_official_passenger" begin="3600" end="4500" number="71" departLane="best" departSpeed="max">
    <route edges="-56457 -53030" />
  </flow>
  <flow id="demo_13_evening_peak_04_north_right" type="demo_13_official_passenger" begin="3600" end="4500" number="95" departLane="best" departSpeed="max">
    <route edges="-46884 -56458" />
  </flow>
  <flow id="demo_13_evening_peak_05_east_through" type="demo_13_official_passenger" begin="4500" end="5400" number="74" departLane="best" departSpeed="max">
    <route edges="-56457 -56458" />
  </flow>
  <flow id="demo_13_evening_peak_05_east_right" type="demo_13_official_passenger" begin="4500" end="5400" number="52" departLane="best" departSpeed="max">
    <route edges="-56457 -53030" />
  </flow>
  <flow id="demo_13_evening_peak_05_north_right" type="demo_13_official_passenger" begin="4500" end="5400" number="73" departLane="best" departSpeed="max">
    <route edges="-46884 -56458" />
  </flow>
  <flow id="demo_13_evening_peak_06_east_through" type="demo_13_official_passenger" begin="5400" end="6300" number="83" departLane="best" departSpeed="max">
    <route edges="-56457 -56458" />
  </flow>
  <flow id="demo_13_evening_peak_06_east_right" type="demo_13_official_passenger" begin="5400" end="6300" number="67" departLane="best" departSpeed="max">
    <route edges="-56457 -53030" />
  </flow>
  <flow id="demo_13_evening_peak_06_north_right" type="demo_13_official_passenger" begin="5400" end="6300" number="69" departLane="best" departSpeed="max">
    <route edges="-46884 -56458" />
  </flow>
  <flow id="demo_13_evening_peak_07_east_through" type="demo_13_official_passenger" begin="6300" end="7200" number="103" departLane="best" departSpeed="max">
    <route edges="-56457 -56458" />
  </flow>
  <flow id="demo_13_evening_peak_07_east_right" type="demo_13_official_passenger" begin="6300" end="7200" number="45" departLane="best" departSpeed="max">
    <route edges="-56457 -53030" />
  </flow>
  <flow id="demo_13_evening_peak_07_north_right" type="demo_13_official_passenger" begin="6300" end="7200" number="82" departLane="best" departSpeed="max">
    <route edges="-46884 -56458" />
  </flow>
</routes>