<?xml version='1.0' encoding='utf-8'?>
<routes>
  <vType id="demo_14_official_passenger" vClass="passenger" emissionClass="HBEFA3/PC_G_EU4" accel="2.6" decel="4.5" sigma="0.5" length="5" width="1.8" minGap="2.5" maxSpeed="13.9" />
  <flow id="demo_14_evening_peak_00_east_left" type="demo_14_official_passenger" begin="0" end="900" number="92" departLane="best" departSpeed="max">
    <route edges="-46786 -52203" />
  </flow>
  <flow id="demo_14_evening_peak_00_east_right" type="demo_14_official_passenger" begin="0" end="900" number="106" departLane="best" departSpeed="max">
    <route edges="-46786 -46528" />
  </flow>
  <flow id="demo_14_evening_peak_00_south_through" type="demo_14_official_passenger" begin="0" end="900" number="42" departLane="best" departSpeed="max">
    <route edges="-46529 -46528" />
  </flow>
  <flow id="demo_14_evening_peak_00_south_right" type="demo_14_official_passenger" begin="0" end="900" number="71" departLane="best" departSpeed="max">
    <route edges="-46529 -52560" />
  </flow>
  <flow id="demo_14_evening_peak_00_north_left" type="demo_14_official_passenger" begin="0" end="900" number="57" departLane="best" departSpeed="max">
    <route edges="-52202 -52560" />
  </flow>
  <flow id="demo_14_evening_peak_00_north_through" type="demo_14_official_passenger" begin="0" end="900" number="82" departLane="best" departSpeed="max">
    <route edges="-52202 -52203" />
  </flow>
  <flow id="demo_14_evening_peak_01_east_left" type="demo_14_official_passenger" begin="900" end="1800" number="88" departLane="best" departSpeed="max">
    <route edges="-46786 -52203" />
  </flow>
  <flow id="demo_14_evening_peak_01_east_right" type="demo_14_official_passenger" begin="900" end="1800" number="109" departLane="best" departSpeed="max">
    <route edges="-46786 -46528" />
  </flow>
  <flow id="demo_14_evening_peak_01_south_through" type="demo_14_official_passenger" begin="900" end="1800" number="45" departLane="best" departSpeed="max">
    <route edges="-46529 -46528" />
  </flow>
  <flow id="demo_14_evening_peak_01_south_right" type="demo_14_official_passenger" begin="900" end="1800" number="76" departLane="best" departSpeed="max">
    <route edges="-46529 -52560" />
  </flow>
  <flow id="demo_14_evening_peak_01_north_left" type="demo_14_official_passenger" begin="900" end="1800" number="61" departLane="best" departSpeed="max">
    <route edges="-52202 -52560" />
  </flow>
  <flow id="demo_14_evening_peak_01_north_through" type="demo_14_official_passenger" begin="900" end="1800" number="85" departLane="best" departSpeed="max">
    <route edges="-52202 -52203" />
  </flow>
  <flow id="demo_14_evening_peak_02_east_left" type="demo_14_official_passenger" begin="1800" end="2700" number="95" departLane="best" departSpeed="max">
    <route edges="-46786 -52203" />
  </flow>
  <flow id="demo_14_evening_peak_02_east_right" type="demo_14_official_passenger" begin="1800" end="2700" number="102" departLane="best" departSpeed="max">
    <route edges="-46786 -46528" />
  </flow>
  <flow id="demo_14_evening_peak_02_south_through" type="demo_14_official_passenger" begin="1800" end="2700" number="38" departLane="best" departSpeed="max">
    <route edges="-46529 -46528" />
  </flow>
  <flow id="demo_14_evening_peak_02_south_right" type="demo_14_official_passenger" begin="1800" end="2700" number="68" departLane="best" departSpeed="max">
    <route edges="-46529 -52560" />
  </flow>
  <flow id="demo_14_evening_peak_02_north_left" type="demo_14_official_passenger" begin="1800" end="2700" number="60" departLane="best" departSpeed="max">
    <route edges="-52202 -52560" />
  </flow>
  <flow id="demo_14_evening_peak_02_north_through" type="demo_14_official_passenger" begin="1800" end="2700" number="78" departLane="best" departSpeed="max">
    <route edges="-52202 -52203" />
  </flow>
  <flow id="demo_14_evening_peak_03_east_left" type="demo_14_official_passenger" begin="2700" end="3600" number="86" departLane="best" departSpeed="max">
    <route edges="-46786 -52203" />
  </flow>
  <flow id="demo_14_evening_peak_03_east_right" type="demo_14_official_passenger" begin="2700" end="3600" number="113" departLane="best" departSpeed="max">
    <route edges="-46786 -46528" />
  </flow>
  <flow id="demo_14_evening_peak_03_south_through" type="demo_14_official_passenger" begin="2700" end="3600" number="47" departLane="best" departSpeed="max">
    <route edges="-46529 -46528" />
  </flow>
  <flow id="demo_14_evening_peak_03_south_right" type="demo_14_official_passenger" begin="2700" end="3600" number="73" departLane="best" departSpeed="max">
    <route edges="-46529 -52560" />
  </flow>
  <flow id="demo_14_evening_peak_03_north_left" type="demo_14_official_passenger" begin="2700" end="3600" number="53" departLane="best" departSpeed="max">
    <route edges="-52202 -52560" />
  </flow>
  <flow id="demo_14_evening_peak_03_north_through" type="demo_14_official_passenger" begin="2700" end="3600" number="103" departLane="best" departSpeed="max">
    <route edges="-52202 -52203" />
  </flow>
  <flow id="demo_14_evening_peak_04_east_left" type="demo_14_official_passenger" begin="3600" end="4500" number="90" departLane="best" departSpeed="max">
    <route edges="-46786 -52203" />
  </flow>
  <flow id="demo_14_evening_peak_04_east_right" type="demo_14_official_passenger" begin="3600" end="4500" number="104" departLane="best" departSpeed="max">
    <route edges="-46786 -46528" />
  </flow>
  <flow id="demo_14_evening_peak_04_south_through" type="demo_14_official_passenger" begin="3600" end="4500" number="40" departLane="best" departSpeed="max">
    <route edges="-46529 -46528" />
  </flow>
  <flow id="demo_14_evening_peak_04_south_right" type="demo_14_official_passenger" begin="3600" end="4500" number="69" departLane="best" departSpeed="max">
    <route edges="-46529 -52560" />
  </flow>
  <flow id="demo_14_evening_peak_04_north_left" type="demo_14_official_passenger" begin="3600" end="4500" number="59" departLane="best" departSpeed="max">
    <route edges="-52202 -52560" />
  </flow>
  <flow id="demo_14_evening_peak_04_north_through" type="demo_14_official_passenger" begin="3600" end="4500" number="79" departLane="best" departSpeed="max">
    <route edges="-52202 -52203" />
  </flow>
  <flow id="demo_14_evening_peak_05_east_left" type="demo_14_official_passenger" begin="4500" end="5400" number="87" departLane="best" departSpeed="max">
    <route edges="-46786 -52203" />
  </flow>
  <flow id="demo_14_evening_peak_05_east_right" type="demo_14_official_passenger" begin="4500" end="5400" number="108" departLane="best" departSpeed="max">
    <route edges="-46786 -46528" />
  </flow>
  <flow id="demo_14_evening_peak_05_south_through" type="demo_14_official_passenger" begin="4500" end="5400" number="43" departLane="best" departSpeed="max">
    <route edges="-46529 -46528" />
  </flow>
  <flow id="demo_14_evening_peak_05_south_right" type="demo_14_official_passenger" begin="4500" end="5400" number="74" departLane="best" departSpeed="max">
    <route edges="-46529 -52560" />
  </flow>
  <flow id="demo_14_evening_peak_05_north_left" type="demo_14_official_passenger" begin="4500" end="5400" number="58" departLane="best" departSpeed="max">
    <route edges="-52202 -52560" />
  </flow>
  <flow id="demo_14_evening_peak_05_north_through" type="demo_14_official_passenger" begin="4500" end="5400" number="83" departLane="best" departSpeed="max">
    <route edges="-52202 -52203" />
  </flow>
  <flow id="demo_14_evening_peak_06_east_left" type="demo_14_official_passenger" begin="5400" end="6300" number="93" departLane="best" departSpeed="max">
    <route edges="-46786 -52203" />
  </flow>
  <flow id="demo_14_evening_peak_06_east_right" type="demo_14_official_passenger" begin="5400" end="6300" number="101" departLane="best" departSpeed="max">
    <route edges="-46786 -46528" />
  </flow>
  <flow id="demo_14_evening_peak_06_south_through" type="demo_14_official_passenger" begin="5400" end="6300" number="39" departLane="best" departSpeed="max">
    <route edges="-46529 -46528" />
  </flow>
  <flow id="demo_14_evening_peak_06_south_right" type="demo_14_official_passenger" begin="5400" end="6300" number="67" departLane="best" departSpeed="max">
    <route edges="-46529 -52560" />
  </flow>
  <flow id="demo_14_evening_peak_06_north_left" type="demo_14_official_passenger" begin="5400" end="6300" number="52" departLane="best" departSpeed="max">
    <route edges="-52202 -52560" />
  </flow>
  <flow id="demo_14_evening_peak_06_north_through" type="demo_14_official_passenger" begin="5400" end="6300" number="76" departLane="best" departSpeed="max">
    <route edges="-52202 -52203" />
  </flow>
  <flow id="demo_14_evening_peak_07_east_left" type="demo_14_official_passenger" begin="6300" end="7200" number="100" departLane="best" departSpeed="max">
    <route edges="-46786 -52203" />
  </flow>
  <flow id="demo_14_evening_peak_07_east_right" type="demo_14_official_passenger" begin="6300" end="7200" number="113" departLane="best" departSpeed="max">
    <route edges="-46786 -46528" />
  </flow>
  <flow id="demo_14_evening_peak_07_south_through" type="demo_14_official_passenger" begin="6300" end="7200" number="50" departLane="best" departSpeed="max">
    <route edges="-46529 -46528" />
  </flow>
  <flow id="demo_14_evening_peak_07_south_right" type="demo_14_official_passenger" begin="6300" end="7200" number="81" departLane="best" departSpeed="max">
    <route edges="-46529 -52560" />
  </flow>
  <flow id="demo_14_evening_peak_07_north_left" type="demo_14_official_passenger" begin="6300" end="7200" number="62" departLane="best" departSpeed="max">
    <route edges="-52202 -52560" />
  </flow>
  <flow id="demo_14_evening_peak_07_north_through" type="demo_14_official_passenger" begin="6300" end="7200" number="86" departLane="best" departSpeed="max">
    <route edges="-52202 -52203" />
  </flow>
</routes>