<?xml version='1.0' encoding='utf-8'?>
<additional>
  <tlLogic id="882" type="static" programID="demo_14_evening_peak" offset="0">
    <phase duration="22" state="ggrrrrrrrrGgggrg" name="p1_green" />
    <phase duration="3" state="ggrrrrrrrryyggry" name="p1_yellow" />
    <phase duration="47" state="ggGrrrrrrrrrggrr" name="p2_green" />
    <phase duration="3" state="ggyrrrrrrrrrggrr" name="p2_yellow" />
  </tlLogic>
</additional>