<?xml version='1.0' encoding='utf-8'?>
<additional>
  <tlLogic id="892" type="static" programID="demo_14_evening_peak" offset="0">
    <phase duration="22" state="rrGGGg" name="p1_green" />
    <phase duration="3" state="rryyyy" name="p1_yellow" />
    <phase duration="47" state="GGrrrr" name="p2_green" />
    <phase duration="3" state="yyrrrr" name="p2_yellow" />
  </tlLogic>
</additional>