<?xml version='1.0' encoding='utf-8'?>
<routes>
  <vType id="demo_12_official_passenger" vClass="passenger" emissionClass="HBEFA3/PC_G_EU4" accel="2.6" decel="4.5" sigma="0.5" length="5" width="1.8" minGap="2.5" maxSpeed="13.9" />
  <flow id="demo_12_off_peak_00_east_left" type="demo_12_official_passenger" begin="0" end="900" number="21" departLane="best" departSpeed="max">
    <route edges="-50293 -51257" />
  </flow>
  <flow id="demo_12_off_peak_00_east_through" type="demo_12_official_passenger" begin="0" end="900" number="35" departLane="best" departSpeed="max">
    <route edges="-50293 -45669" />
  </flow>
  <flow id="demo_12_off_peak_00_east_right" type="demo_12_official_passenger" begin="0" end="900" number="14" departLane="best" departSpeed="max">
    <route edges="-50293 -56346.1185" />
  </flow>
  <flow id="demo_12_off_peak_00_west_left" type="demo_12_official_passenger" begin="0" end="900" number="19" departLane="best" departSpeed="max">
    <route edges="-51273 -56346.1185" />
  </flow>
  <flow id="demo_12_off_peak_00_west_through" type="demo_12_official_passenger" begin="0" end="900" number="32" departLane="best" departSpeed="max">
    <route edges="-51273 -56564" />
  </flow>
  <flow id="demo_12_off_peak_00_west_right" type="demo_12_official_passenger" begin="0" end="900" number="13" departLane="best" departSpeed="max">
    <route edges="-51273 -51257" />
  </flow>
  <flow id="demo_12_off_peak_00_north_left" type="demo_12_official_passenger" begin="0" end="900" number="21" departLane="best" departSpeed="max">
    <route edges="-51253 -56564" />
  </flow>
  <flow id="demo_12_off_peak_00_north_through" type="demo_12_official_passenger" begin="0" end="900" number="21" departLane="best" departSpeed="max">
    <route edges="-51253 -51257" />
  </flow>
  <flow id="demo_12_off_peak_00_north_right" type="demo_12_official_passenger" begin="0" end="900" number="11" departLane="best" departSpeed="max">
    <route edges="-51253 -45669" />
  </flow>
  <flow id="demo_12_off_peak_00_south_left" type="demo_12_official_passenger" begin="0" end="900" number="18" departLane="best" departSpeed="max">
    <route edges="-56345 -45669" />
  </flow>
  <flow id="demo_12_off_peak_00_south_through" type="demo_12_official_passenger" begin="0" end="900" number="29" departLane="best" departSpeed="max">
    <route edges="-56345 -56346.1185" />
  </flow>
  <flow id="demo_12_off_peak_00_south_right" type="demo_12_official_passenger" begin="0" end="900" number="12" departLane="best" departSpeed="max">
    <route edges="-56345 -56564" />
  </flow>
  <flow id="demo_12_off_peak_01_east_left" type="demo_12_official_passenger" begin="900" end="1800" number="21" departLane="best" departSpeed="max">
    <route edges="-50293 -51257" />
  </flow>
  <flow id="demo_12_off_peak_01_east_through" type="demo_12_official_passenger" begin="900" end="1800" number="36" departLane="best" departSpeed="max">
    <route edges="-50293 -45669" />
  </flow>
  <flow id="demo_12_off_peak_01_east_right" type="demo_12_official_passenger" begin="900" end="1800" number="14" departLane="best" departSpeed="max">
    <route edges="-50293 -56346.1185" />
  </flow>
  <flow id="demo_12_off_peak_01_west_left" type="demo_12_official_passenger" begin="900" end="1800" number="20" departLane="best" departSpeed="max">
    <route edges="-51273 -56346.1185" />
  </flow>
  <flow id="demo_12_off_peak_01_west_through" type="demo_12_official_passenger" begin="900" end="1800" number="32" departLane="best" departSpeed="max">
    <route edges="-51273 -56564" />
  </flow>
  <flow id="demo_12_off_peak_01_west_right" type="demo_12_official_passenger" begin="900" end="1800" number="13" departLane="best" departSpeed="max">
    <route edges="-51273 -51257" />
  </flow>
  <flow id="demo_12_off_peak_01_north_left" type="demo_12_official_passenger" begin="900" end="1800" number="21" departLane="best" departSpeed="max">
    <route edges="-51253 -56564" />
  </flow>
  <flow id="demo_12_off_peak_01_north_through" type="demo_12_official_passenger" begin="900" end="1800" number="21" departLane="best" departSpeed="max">
    <route edges="-51253 -51257" />
  </flow>
  <flow id="demo_12_off_peak_01_north_right" type="demo_12_official_passenger" begin="900" end="1800" number="11" departLane="best" departSpeed="max">
    <route edges="-51253 -45669" />
  </flow>
  <flow id="demo_12_off_peak_01_south_left" type="demo_12_official_passenger" begin="900" end="1800" number="18" departLane="best" departSpeed="max">
    <route edges="-56345 -45669" />
  </flow>
  <flow id="demo_12_off_peak_01_south_through" type="demo_12_official_passenger" begin="900" end="1800" number="29" departLane="best" departSpeed="max">
    <route edges="-56345 -56346.1185" />
  </flow>
  <flow id="demo_12_off_peak_01_south_right" type="demo_12_official_passenger" begin="900" end="1800" number="12" departLane="best" departSpeed="max">
    <route edges="-56345 -56564" />
  </flow>
  <flow id="demo_12_off_peak_02_east_left" type="demo_12_official_passenger" begin="1800" end="2700" number="21" departLane="best" departSpeed="max">
    <route edges="-50293 -51257" />
  </flow>
  <flow id="demo_12_off_peak_02_east_through" type="demo_12_official_passenger" begin="1800" end="2700" number="36" departLane="best" departSpeed="max">
    <route edges="-50293 -45669" />
  </flow>
  <flow id="demo_12_off_peak_02_east_right" type="demo_12_official_passenger" begin="1800" end="2700" number="14" departLane="best" departSpeed="max">
    <route edges="-50293 -56346.1185" />
  </flow>
  <flow id="demo_12_off_peak_02_west_left" type="demo_12_official_passenger" begin="1800" end="2700" number="20" departLane="best" departSpeed="max">
    <route edges="-51273 -56346.1185" />
  </flow>
  <flow id="demo_12_off_peak_02_west_through" type="demo_12_official_passenger" begin="1800" end="2700" number="33" departLane="best" departSpeed="max">
    <route edges="-51273 -56564" />
  </flow>
  <flow id="demo_12_off_peak_02_west_right" type="demo_12_official_passenger" begin="1800" end="2700" number="13" departLane="best" departSpeed="max">
    <route edges="-51273 -51257" />
  </flow>
  <flow id="demo_12_off_peak_02_north_left" type="demo_12_official_passenger" begin="1800" end="2700" number="22" departLane="best" departSpeed="max">
    <route edges="-51253 -56564" />
  </flow>
  <flow id="demo_12_off_peak_02_north_through" type="demo_12_official_passenger" begin="1800" end="2700" number="21" departLane="best" departSpeed="max">
    <route edges="-51253 -51257" />
  </flow>
  <flow id="demo_12_off_peak_02_north_right" type="demo_12_official_passenger" begin="1800" end="2700" number="11" departLane="best" departSpeed="max">
    <route edges="-51253 -45669" />
  </flow>
  <flow id="demo_12_off_peak_02_south_left" type="demo_12_official_passenger" begin="1800" end="2700" number="18" departLane="best" departSpeed="max">
    <route edges="-56345 -45669" />
  </flow>
  <flow id="demo_12_off_peak_02_south_through" type="demo_12_official_passenger" begin="1800" end="2700" number="30" departLane="best" departSpeed="max">
    <route edges="-56345 -56346.1185" />
  </flow>
  <flow id="demo_12_off_peak_02_south_right" type="demo_12_official_passenger" begin="1800" end="2700" number="12" departLane="best" departSpeed="max">
    <route edges="-56345 -56564" />
  </flow>
  <flow id="demo_12_off_peak_03_east_left" type="demo_12_official_passenger" begin="2700" end="3600" number="22" departLane="best" departSpeed="max">
    <route edges="-50293 -51257" />
  </flow>
  <flow id="demo_12_off_peak_03_east_through" type="demo_12_official_passenger" begin="2700" end="3600" number="36" departLane="best" departSpeed="max">
    <route edges="-50293 -45669" />
  </flow>
  <flow id="demo_12_off_peak_03_east_right" type="demo_12_official_passenger" begin="2700" end="3600" number="15" departLane="best" departSpeed="max">
    <route edges="-50293 -56346.1185" />
  </flow>
  <flow id="demo_12_off_peak_03_west_left" type="demo_12_official_passenger" begin="2700" end="3600" number="20" departLane="best" departSpeed="max">
    <route edges="-51273 -56346.1185" />
  </flow>
  <flow id="demo_12_off_peak_03_west_through" type="demo_12_official_passenger" begin="2700" end="3600" number="33" departLane="best" departSpeed="max">
    <route edges="-51273 -56564" />
  </flow>
  <flow id="demo_12_off_peak_03_west_right" type="demo_12_official_passenger" begin="2700" end="3600" number="13" departLane="best" departSpeed="max">
    <route edges="-51273 -51257" />
  </flow>
  <flow id="demo_12_off_peak_03_north_left" type="demo_12_official_passenger" begin="2700" end="3600" number="22" departLane="best" departSpeed="max">
    <route edges="-51253 -56564" />
  </flow>
  <flow id="demo_12_off_peak_03_north_through" type="demo_12_official_passenger" begin="2700" end="3600" number="22" departLane="best" departSpeed="max">
    <route edges="-51253 -51257" />
  </flow>
  <flow id="demo_12_off_peak_03_north_right" type="demo_12_official_passenger" begin="2700" end="3600" number="11" departLane="best" departSpeed="max">
    <route edges="-51253 -45669" />
  </flow>
  <flow id="demo_12_off_peak_03_south_left" type="demo_12_official_passenger" begin="2700" end="3600" number="18" departLane="best" departSpeed="max">
    <route edges="-56345 -45669" />
  </flow>
  <flow id="demo_12_off_peak_03_south_through" type="demo_12_official_passenger" begin="2700" end="3600" number="31" departLane="best" departSpeed="max">
    <route edges="-56345 -56346.1185" />
  </flow>
  <flow id="demo_12_off_peak_03_south_right" type="demo_12_official_passenger" begin="2700" end="3600" number="12" departLane="best" departSpeed="max">
    <route edges="-56345 -56564" />
  </flow>
  <flow id="demo_12_off_peak_04_east_left" type="demo_12_official_passenger" begin="3600" end="4500" number="20" departLane="best" departSpeed="max">
    <route edges="-50293 -51257" />
  </flow>
  <flow id="demo_12_off_peak_04_east_through" type="demo_12_official_passenger" begin="3600" end="4500" number="34" departLane="best" departSpeed="max">
    <route edges="-50293 -45669" />
  </flow>
  <flow id="demo_12_off_peak_04_east_right" type="demo_12_official_passenger" begin="3600" end="4500" number="14" departLane="best" departSpeed="max">
    <route edges="-50293 -56346.1185" />
  </flow>
  <flow id="demo_12_off_peak_04_west_left" type="demo_12_official_passenger" begin="3600" end="4500" number="19" departLane="best" departSpeed="max">
    <route edges="-51273 -56346.1185" />
  </flow>
  <flow id="demo_12_off_peak_04_west_through" type="demo_12_official_passenger" begin="3600" end="4500" number="31" departLane="best" departSpeed="max">
    <route edges="-51273 -56564" />
  </flow>
  <flow id="demo_12_off_peak_04_west_right" type="demo_12_official_passenger" begin="3600" end="4500" number="12" departLane="best" departSpeed="max">
    <route edges="-51273 -51257" />
  </flow>
  <flow id="demo_12_off_peak_04_north_left" type="demo_12_official_passenger" begin="3600" end="4500" number="20" departLane="best" departSpeed="max">
    <route edges="-51253 -56564" />
  </flow>
  <flow id="demo_12_off_peak_04_north_through" type="demo_12_official_passenger" begin="3600" end="4500" number="20" departLane="best" departSpeed="max">
    <route edges="-51253 -51257" />
  </flow>
  <flow id="demo_12_off_peak_04_north_right" type="demo_12_official_passenger" begin="3600" end="4500" number="10" departLane="best" departSpeed="max">
    <route edges="-51253 -45669" />
  </flow>
  <flow id="demo_12_off_peak_04_south_left" type="demo_12_official_passenger" begin="3600" end="4500" number="17" departLane="best" departSpeed="max">
    <route edges="-56345 -45669" />
  </flow>
  <flow id="demo_12_off_peak_04_south_through" type="demo_12_official_passenger" begin="3600" end="4500" number="28" departLane="best" departSpeed="max">
    <route edges="-56345 -56346.1185" />
  </flow>
  <flow id="demo_12_off_peak_04_south_right" type="demo_12_official_passenger" begin="3600" end="4500" number="11" departLane="best" departSpeed="max">
    <route edges="-56345 -56564" />
  </flow>
  <flow id="demo_12_off_peak_05_east_left" type="demo_12_official_passenger" begin="4500" end="5400" number="20" departLane="best" departSpeed="max">
    <route edges="-50293 -51257" />
  </flow>
  <flow id="demo_12_off_peak_05_east_through" type="demo_12_official_passenger" begin="4500" end="5400" number="33" departLane="best" departSpeed="max">
    <route edges="-50293 -45669" />
  </flow>
  <flow id="demo_12_off_peak_05_east_right" type="demo_12_official_passenger" begin="4500" end="5400" number="13" departLane="best" departSpeed="max">
    <route edges="-50293 -56346.1185" />
  </flow>
  <flow id="demo_12_off_peak_05_west_left" type="demo_12_official_passenger" begin="4500" end="5400" number="18" departLane="best" departSpeed="max">
    <route edges="-51273 -56346.1185" />
  </flow>
  <flow id="demo_12_off_peak_05_west_through" type="demo_12_official_passenger" begin="4500" end="5400" number="31" departLane="best" departSpeed="max">
    <route edges="-51273 -56564" />
  </flow>
  <flow id="demo_12_off_peak_05_west_right" type="demo_12_official_passenger" begin="4500" end="5400" number="12" departLane="best" departSpeed="max">
    <route edges="-51273 -51257" />
  </flow>
  <flow id="demo_12_off_peak_05_north_left" type="demo_12_official_passenger" begin="4500" end="5400" number="19" departLane="best" departSpeed="max">
    <route edges="-51253 -56564" />
  </flow>
  <flow id="demo_12_off_peak_05_north_through" type="demo_12_official_passenger" begin="4500" end="5400" number="19" departLane="best" departSpeed="max">
    <route edges="-51253 -51257" />
  </flow>
  <flow id="demo_12_off_peak_05_north_right" type="demo_12_official_passenger" begin="4500" end="5400" number="10" departLane="best" departSpeed="max">
    <route edges="-51253 -45669" />
  </flow>
  <flow id="demo_12_off_peak_05_south_left" type="demo_12_official_passenger" begin="4500" end="5400" number="16" departLane="best" departSpeed="max">
    <route edges="-56345 -45669" />
  </flow>
  <flow id="demo_12_off_peak_05_south_through" type="demo_12_official_passenger" begin="4500" end="5400" number="28" departLane="best" departSpeed="max">
    <route edges="-56345 -56346.1185" />
  </flow>
  <flow id="demo_12_off_peak_05_south_right" type="demo_12_official_passenger" begin="4500" end="5400" number="11" departLane="best" departSpeed="max">
    <route edges="-56345 -56564" />
  </flow>
  <flow id="demo_12_off_peak_06_east_left" type="demo_12_official_passenger" begin="5400" end="6300" number="19" departLane="best" departSpeed="max">
    <route edges="-50293 -51257" />
  </flow>
  <flow id="demo_12_off_peak_06_east_through" type="demo_12_official_passenger" begin="5400" end="6300" number="32" departLane="best" departSpeed="max">
    <route edges="-50293 -45669" />
  </flow>
  <flow id="demo_12_off_peak_06_east_right" type="demo_12_official_passenger" begin="5400" end="6300" number="13" departLane="best" departSpeed="max">
    <route edges="-50293 -56346.1185" />
  </flow>
  <flow id="demo_12_off_peak_06_west_left" type="demo_12_official_passenger" begin="5400" end="6300" number="18" departLane="best" departSpeed="max">
    <route edges="-51273 -56346.1185" />
  </flow>
  <flow id="demo_12_off_peak_06_west_through" type="demo_12_official_passenger" begin="5400" end="6300" number="30" departLane="best" departSpeed="max">
    <route edges="-51273 -56564" />
  </flow>
  <flow id="demo_12_off_peak_06_west_right" type="demo_12_official_passenger" begin="5400" end="6300" number="12" departLane="best" departSpeed="max">
    <route edges="-51273 -51257" />
  </flow>
  <flow id="demo_12_off_peak_06_north_left" type="demo_12_official_passenger" begin="5400" end="6300" number="19" departLane="best" departSpeed="max">
    <route edges="-51253 -56564" />
  </flow>
  <flow id="demo_12_off_peak_06_north_through" type="demo_12_official_passenger" begin="5400" end="6300" number="19" departLane="best" departSpeed="max">
    <route edges="-51253 -51257" />
  </flow>
  <flow id="demo_12_off_peak_06_north_right" type="demo_12_official_passenger" begin="5400" end="6300" number="9" departLane="best" departSpeed="max">
    <route edges="-51253 -45669" />
  </flow>
  <flow id="demo_12_off_peak_06_south_left" type="demo_12_official_passenger" begin="5400" end="6300" number="16" departLane="best" departSpeed="max">
    <route edges="-56345 -45669" />
  </flow>
  <flow id="demo_12_off_peak_06_south_through" type="demo_12_official_passenger" begin="5400" end="6300" number="27" departLane="best" departSpeed="max">
    <route edges="-56345 -56346.1185" />
  </flow>
  <flow id="demo_12_off_peak_06_south_right" type="demo_12_official_passenger" begin="5400" end="6300" number="11" departLane="best" departSpeed="max">
    <route edges="-56345 -56564" />
  </flow>
  <flow id="demo_12_off_peak_07_east_left" type="demo_12_official_passenger" begin="6300" end="7200" number="19" departLane="best" departSpeed="max">
    <route edges="-50293 -51257" />
  </flow>
  <flow id="demo_12_off_peak_07_east_through" type="demo_12_official_passenger" begin="6300" end="7200" number="31" departLane="best" departSpeed="max">
    <route edges="-50293 -45669" />
  </flow>
  <flow id="demo_12_off_peak_07_east_right" type="demo_12_official_passenger" begin="6300" end="7200" number="12" departLane="best" departSpeed="max">
    <route edges="-50293 -56346.1185" />
  </flow>
  <flow id="demo_12_off_peak_07_west_left" type="demo_12_official_passenger" begin="6300" end="7200" number="16" departLane="best" departSpeed="max">
    <route edges="-51273 -56346.1185" />
  </flow>
  <flow id="demo_12_off_peak_07_west_through" type="demo_12_official_passenger" begin="6300" end="7200" number="28" departLane="best" departSpeed="max">
    <route edges="-51273 -56564" />
  </flow>
  <flow id="demo_12_off_peak_07_west_right" type="demo_12_official_passenger" begin="6300" end="7200" number="11" departLane="best" departSpeed="max">
    <route edges="-51273 -51257" />
  </flow>
  <flow id="demo_12_off_peak_07_north_left" type="demo_12_official_passenger" begin="6300" end="7200" number="19" departLane="best" departSpeed="max">
    <route edges="-51253 -56564" />
  </flow>
  <flow id="demo_12_off_peak_07_north_through" type="demo_12_official_passenger" begin="6300" end="7200" number="19" departLane="best" departSpeed="max">
    <route edges="-51253 -51257" />
  </flow>
  <flow id="demo_12_off_peak_07_north_right" type="demo_12_official_passenger" begin="6300" end="7200" number="9" departLane="best" departSpeed="max">
    <route edges="-51253 -45669" />
  </flow>
  <flow id="demo_12_off_peak_07_south_left" type="demo_12_official_passenger" begin="6300" end="7200" number="15" departLane="best" departSpeed="max">
    <route edges="-56345 -45669" />
  </flow>
  <flow id="demo_12_off_peak_07_south_through" type="demo_12_official_passenger" begin="6300" end="7200" number="26" departLane="best" departSpeed="max">
    <route edges="-56345 -56346.1185" />
  </flow>
  <flow id="demo_12_off_peak_07_south_right" type="demo_12_official_passenger" begin="6300" end="7200" number="10" departLane="best" departSpeed="max">
    <route edges="-56345 -56564" />
  </flow>
</routes>