<?xml version='1.0' encoding='utf-8'?>
<routes>
  <vType id="demo_2_official_passenger" vClass="passenger" accel="2.6" decel="4.5" sigma="0.5" length="5" minGap="2.5" maxSpeed="13.9" />
  <flow id="demo_2_off_peak_00_west_left" type="demo_2_official_passenger" begin="0" end="900" number="25" departLane="best" departSpeed="max">
    <route edges="-51425 -56736" />
  </flow>
  <flow id="demo_2_off_peak_00_west_right" type="demo_2_official_passenger" begin="0" end="900" number="32" departLane="best" departSpeed="max">
    <route edges="-51425 -57229" />
  </flow>
  <flow id="demo_2_off_peak_00_north_through" type="demo_2_official_passenger" begin="0" end="900" number="26" departLane="best" departSpeed="max">
    <route edges="-56734 -56736" />
  </flow>
  <flow id="demo_2_off_peak_00_north_right" type="demo_2_official_passenger" begin="0" end="900" number="40" departLane="best" departSpeed="max">
    <route edges="-56734 -45801" />
  </flow>
  <flow id="demo_2_off_peak_00_south_left" type="demo_2_official_passenger" begin="0" end="900" number="44" departLane="best" departSpeed="max">
    <route edges="-57228 -45801" />
  </flow>
  <flow id="demo_2_off_peak_00_south_through" type="demo_2_official_passenger" begin="0" end="900" number="18" departLane="best" departSpeed="max">
    <route edges="-57228 -57229" />
  </flow>
  <flow id="demo_2_off_peak_01_west_left" type="demo_2_official_passenger" begin="900" end="1800" number="26" departLane="best" departSpeed="max">
    <route edges="-51425 -56736" />
  </flow>
  <flow id="demo_2_off_peak_01_west_right" type="demo_2_official_passenger" begin="900" end="1800" number="34" departLane="best" departSpeed="max">
    <route edges="-51425 -57229" />
  </flow>
  <flow id="demo_2_off_peak_01_north_through" type="demo_2_official_passenger" begin="900" end="1800" number="28" departLane="best" departSpeed="max">
    <route edges="-56734 -56736" />
  </flow>
  <flow id="demo_2_off_peak_01_north_right" type="demo_2_official_passenger" begin="900" end="1800" number="44" departLane="best" departSpeed="max">
    <route edges="-56734 -45801" />
  </flow>
  <flow id="demo_2_off_peak_01_south_left" type="demo_2_official_passenger" begin="900" end="1800" number="41" departLane="best" departSpeed="max">
    <route edges="-57228 -45801" />
  </flow>
  <flow id="demo_2_off_peak_01_south_through" type="demo_2_official_passenger" begin="900" end="1800" number="19" departLane="best" departSpeed="max">
    <route edges="-57228 -57229" />
  </flow>
  <flow id="demo_2_off_peak_02_west_left" type="demo_2_official_passenger" begin="1800" end="2700" number="27" departLane="best" departSpeed="max">
    <route edges="-51425 -56736" />
  </flow>
  <flow id="demo_2_off_peak_02_west_right" type="demo_2_official_passenger" begin="1800" end="2700" number="32" departLane="best" departSpeed="max">
    <route edges="-51425 -57229" />
  </flow>
  <flow id="demo_2_off_peak_02_north_through" type="demo_2_official_passenger" begin="1800" end="2700" number="17" departLane="best" departSpeed="max">
    <route edges="-56734 -56736" />
  </flow>
  <flow id="demo_2_off_peak_02_north_right" type="demo_2_official_passenger" begin="1800" end="2700" number="42" departLane="best" departSpeed="max">
    <route edges="-56734 -45801" />
  </flow>
  <flow id="demo_2_off_peak_02_south_left" type="demo_2_official_passenger" begin="1800" end="2700" number="44" departLane="best" departSpeed="max">
    <route edges="-57228 -45801" />
  </flow>
  <flow id="demo_2_off_peak_02_south_through" type="demo_2_official_passenger" begin="1800" end="2700" number="18" departLane="best" departSpeed="max">
    <route edges="-57228 -57229" />
  </flow>
  <flow id="demo_2_off_peak_03_west_left" type="demo_2_official_passenger" begin="2700" end="3600" number="26" departLane="best" departSpeed="max">
    <route edges="-51425 -56736" />
  </flow>
  <flow id="demo_2_off_peak_03_west_right" type="demo_2_official_passenger" begin="2700" end="3600" number="33" departLane="best" departSpeed="max">
    <route edges="-51425 -57229" />
  </flow>
  <flow id="demo_2_off_peak_03_north_through" type="demo_2_official_passenger" begin="2700" end="3600" number="26" departLane="best" departSpeed="max">
    <route edges="-56734 -56736" />
  </flow>
  <flow id="demo_2_off_peak_03_north_right" type="demo_2_official_passenger" begin="2700" end="3600" number="45" departLane="best" departSpeed="max">
    <route edges="-56734 -45801" />
  </flow>
  <flow id="demo_2_off_peak_03_south_left" type="demo_2_official_passenger" begin="2700" end="3600" number="40" departLane="best" departSpeed="max">
    <route edges="-57228 -45801" />
  </flow>
  <flow id="demo_2_off_peak_03_south_through" type="demo_2_official_passenger" begin="2700" end="3600" number="16" departLane="best" departSpeed="max">
    <route edges="-57228 -57229" />
  </flow>
  <flow id="demo_2_off_peak_04_west_left" type="demo_2_official_passenger" begin="3600" end="4500" number="25" departLane="best" departSpeed="max">
    <route edges="-51425 -56736" />
  </flow>
  <flow id="demo_2_off_peak_04_west_right" type="demo_2_official_passenger" begin="3600" end="4500" number="36" departLane="best" departSpeed="max">
    <route edges="-51425 -57229" />
  </flow>
  <flow id="demo_2_off_peak_04_north_through" type="demo_2_official_passenger" begin="3600" end="4500" number="29" departLane="best" departSpeed="max">
    <route edges="-56734 -56736" />
  </flow>
  <flow id="demo_2_off_peak_04_north_right" type="demo_2_official_passenger" begin="3600" end="4500" number="44" departLane="best" departSpeed="max">
    <route edges="-56734 -45801" />
  </flow>
  <flow id="demo_2_off_peak_04_south_left" type="demo_2_official_passenger" begin="3600" end="4500" number="44" departLane="best" departSpeed="max">
    <route edges="-57228 -45801" />
  </flow>
  <flow id="demo_2_off_peak_04_south_through" type="demo_2_official_passenger" begin="3600" end="4500" number="17" departLane="best" departSpeed="max">
    <route edges="-57228 -57229" />
  </flow>
  <flow id="demo_2_off_peak_05_west_left" type="demo_2_official_passenger" begin="4500" end="5400" number="27" departLane="best" departSpeed="max">
    <route edges="-51425 -56736" />
  </flow>
  <flow id="demo_2_off_peak_05_west_right" type="demo_2_official_passenger" begin="4500" end="5400" number="31" departLane="best" departSpeed="max">
    <route edges="-51425 -57229" />
  </flow>
  <flow id="demo_2_off_peak_05_north_through" type="demo_2_official_passenger" begin="4500" end="5400" number="30" departLane="best" departSpeed="max">
    <route edges="-56734 -56736" />
  </flow>
  <flow id="demo_2_off_peak_05_north_right" type="demo_2_official_passenger" begin="4500" end="5400" number="40" departLane="best" departSpeed="max">
    <route edges="-56734 -45801" />
  </flow>
  <flow id="demo_2_off_peak_05_south_left" type="demo_2_official_passenger" begin="4500" end="5400" number="43" departLane="best" departSpeed="max">
    <route edges="-57228 -45801" />
  </flow>
  <flow id="demo_2_off_peak_05_south_through" type="demo_2_official_passenger" begin="4500" end="5400" number="16" departLane="best" departSpeed="max">
    <route edges="-57228 -57229" />
  </flow>
  <flow id="demo_2_off_peak_06_west_left" type="demo_2_official_passenger" begin="5400" end="6300" number="25" departLane="best" departSpeed="max">
    <route edges="-51425 -56736" />
  </flow>
  <flow id="demo_2_off_peak_06_west_right" type="demo_2_official_passenger" begin="5400" end="6300" number="34" departLane="best" departSpeed="max">
    <route edges="-51425 -57229" />
  </flow>
  <flow id="demo_2_off_peak_06_north_through" type="demo_2_official_passenger" begin="5400" end="6300" number="26" departLane="best" departSpeed="max">
    <route edges="-56734 -56736" />
  </flow>
  <flow id="demo_2_off_peak_06_north_right" type="demo_2_official_passenger" begin="5400" end="6300" number="42" departLane="best" departSpeed="max">
    <route edges="-56734 -45801" />
  </flow>
  <flow id="demo_2_off_peak_06_south_left" type="demo_2_official_passenger" begin="5400" end="6300" number="45" departLane="best" departSpeed="max">
    <route edges="-57228 -45801" />
  </flow>
  <flow id="demo_2_off_peak_06_south_through" type="demo_2_official_passenger" begin="5400" end="6300" number="19" departLane="best" departSpeed="max">
    <route edges="-57228 -57229" />
  </flow>
  <flow id="demo_2_off_peak_07_west_left" type="demo_2_official_passenger" begin="6300" end="7200" number="28" departLane="best" departSpeed="max">
    <route edges="-51425 -56736" />
  </flow>
  <flow id="demo_2_off_peak_07_west_right" type="demo_2_official_passenger" begin="6300" end="7200" number="33" departLane="best" departSpeed="max">
    <route edges="-51425 -57229" />
  </flow>
  <flow id="demo_2_off_peak_07_north_through" type="demo_2_official_passenger" begin="6300" end="7200" number="27" departLane="best" departSpeed="max">
    <route edges="-56734 -56736" />
  </flow>
  <flow id="demo_2_off_peak_07_north_right" type="demo_2_official_passenger" begin="6300" end="7200" number="39" departLane="best" departSpeed="max">
    <route edges="-56734 -45801" />
  </flow>
  <flow id="demo_2_off_peak_07_south_left" type="demo_2_official_passenger" begin="6300" end="7200" number="42" departLane="best" departSpeed="max">
    <route edges="-57228 -45801" />
  </flow>
  <flow id="demo_2_off_peak_07_south_through" type="demo_2_official_passenger" begin="6300" end="7200" number="17" departLane="best" departSpeed="max">
    <route edges="-57228 -57229" />
  </flow>
</routes>