<?xml version="1.0" encoding="UTF-8"?>

<!-- generated on 2026-07-03 15:34:43 by Eclipse SUMO duarouter Version 1.12.0
<configuration xmlns:xsi="http://www.w3.org/2001/XMLSchema-instance" xsi:noNamespaceSchemaLocation="http://sumo.dlr.de/xsd/duarouterConfiguration.xsd">

    <input>
        <net-file value="xiongan_test.net.xml"/>
        <route-files value="demo.trips.xml"/>
    </input>

    <output>
        <output-file value="demo.trips.xml.tmp"/>
        <write-trips value="true"/>
    </output>

    <time>
        <begin value="0"/>
        <end value="300"/>
    </time>

    <report>
        <no-warnings value="true"/>
        <ignore-errors value="true"/>
        <no-step-log value="true"/>
    </report>

</configuration>
-->

<routes xmlns:xsi="http://www.w3.org/2001/XMLSchema-instance" xsi:noNamespaceSchemaLocation="http://sumo.dlr.de/xsd/routes_file.xsd">
    <trip id="0" depart="0.00" from="-1173" to="-1029"/>
    <trip id="1" depart="5.00" from="-1089" to="-1074"/>
    <trip id="2" depart="10.00" from="-1192" to="-1181"/>
    <trip id="3" depart="15.00" from="-1227" to="-1044"/>
    <trip id="4" depart="20.00" from="-1125" to="-1030"/>
    <trip id="5" depart="25.00" from="-1029" to="-1070"/>
    <trip id="6" depart="30.00" from="-1174" to="-1150"/>
    <trip id="7" depart="35.00" from="-1073" to="-1159"/>
    <trip id="8" depart="40.00" from="-1207" to="-1020"/>
    <trip id="9" depart="45.00" from="-1206" to="-1184"/>
    <trip id="10" depart="50.00" from="-1104" to="-1059"/>
    <trip id="11" depart="55.00" from="-1244" to="-1106"/>
    <trip id="12" depart="60.00" from="-1045" to="-1047"/>
    <trip id="13" depart="65.00" from="-1215" to="-1163"/>
    <trip id="14" depart="70.00" from="-1151" to="-1245"/>
    <trip id="15" depart="75.00" from="-1113" to="-1152"/>
    <trip id="16" depart="80.00" from="-1212" to="-1168"/>
    <trip id="17" depart="85.00" from="-1219" to="-1158"/>
    <trip id="18" depart="90.00" from="-1187" to="-1037"/>
    <trip id="19" depart="95.00" from="-1075" to="-1094"/>
    <trip id="20" depart="100.00" from="-1042" to="-1077"/>
    <trip id="21" depart="105.00" from="-1045" to="-1091"/>
    <trip id="22" depart="110.00" from="-1172" to="-1113"/>
    <trip id="23" depart="115.00" from="-1111" to="-1070"/>
    <trip id="24" depart="120.00" from="-1087" to="-1238"/>
    <trip id="25" depart="125.00" from="-1174" to="-1165"/>
    <trip id="26" depart="130.00" from="-1062" to="-1194"/>
    <trip id="27" depart="135.00" from="-1060" to="-1117"/>
    <trip id="28" depart="140.00" from="-1250" to="-1173"/>
    <trip id="29" depart="145.00" from="-1156" to="-1182"/>
    <trip id="30" depart="150.00" from="-1215" to="-1205"/>
    <trip id="31" depart="155.00" from="-1075" to="-1030"/>
    <trip id="32" depart="160.00" from="-1098" to="-1088"/>
    <trip id="33" depart="165.00" from="-1071" to="-1239"/>
    <trip id="34" depart="170.00" from="-1223" to="-1101"/>
    <trip id="35" depart="175.00" from="-1175" to="-1119"/>
    <trip id="36" depart="180.00" from="-1232" to="-1133"/>
    <trip id="37" depart="185.00" from="-1087" to="-1078"/>
    <trip id="38" depart="190.00" from="-1157" to="-1086"/>
    <trip id="39" depart="195.00" from="-1162" to="-1231"/>
    <trip id="40" depart="200.00" from="-1120" to="-1073"/>
    <trip id="41" depart="205.00" from="-1252" to="-1142"/>
    <trip id="42" depart="210.00" from="-1045" to="-1037"/>
    <trip id="43" depart="215.00" from="-1047" to="-1170"/>
    <trip id="44" depart="220.00" from="-1203" to="-1125"/>
    <trip id="45" depart="225.00" from="-1039" to="-1117"/>
    <trip id="46" depart="230.00" from="-1252" to="-1146"/>
    <trip id="47" depart="235.00" from="-1247" to="-1223"/>
    <trip id="48" depart="240.00" from="-1026" to="-1192"/>
    <trip id="49" depart="245.00" from="-1183" to="-1148"/>
    <trip id="50" depart="250.00" from="-1087" to="-1173"/>
    <trip id="51" depart="255.00" from="-1048" to="-1129"/>
    <trip id="52" depart="260.00" from="-1131" to="-1240"/>
    <trip id="53" depart="265.00" from="-1223" to="-1087"/>
    <trip id="54" depart="270.00" from="-1143" to="-1065"/>
    <trip id="55" depart="275.00" from="-1231" to="-1225"/>
    <trip id="56" depart="280.00" from="-1092" to="-1173"/>
    <trip id="57" depart="285.00" from="-1166" to="-1059"/>
    <trip id="58" depart="290.00" from="-1200" to="-1149"/>
    <trip id="59" depart="295.00" from="-1202" to="-1146"/>
</routes>
