<?xml version='1.0' encoding='utf-8'?>
<additional>
  <poi id="csv.demo_1" type="citypulse_csv_point" color="0,80,255" x="21807.37" y="42363.69" layer="100" width="18" height="18" name="demo_1 CSV" />
  <poi id="matched.demo_1.junction.4427" type="citypulse_matched_junction" color="255,0,0" x="21807.28" y="42363.87" layer="100" width="18" height="18" name="demo_1 primary 4427 0.2m" />
  <poly id="error_line.demo_1.4427" type="citypulse_match_error" color="255,200,0" fill="false" layer="90" lineWidth="4" shape="21807.37,42363.69 21807.28,42363.87" />
  <poi id="csv.demo_2" type="citypulse_csv_point" color="0,80,255" x="21644.69" y="45984.97" layer="100" width="18" height="18" name="demo_2 CSV" />
  <poi id="matched.demo_2.junction.317" type="citypulse_matched_junction" color="255,0,0" x="21644.77" y="45985.59" layer="100" width="18" height="18" name="demo_2 primary 317 0.62m" />
  <poly id="error_line.demo_2.317" type="citypulse_match_error" color="255,200,0" fill="false" layer="90" lineWidth="4" shape="21644.69,45984.97 21644.77,45985.59" />
  <poi id="csv.demo_3" type="citypulse_csv_point" color="0,80,255" x="27588.30" y="41946.18" layer="100" width="18" height="18" name="demo_3 CSV" />
  <poi id="matched.demo_3.junction.citypulse_demo_3" type="citypulse_matched_junction" color="255,0,0" x="27588.96" y="41949.82" layer="100" width="18" height="18" name="demo_3 primary citypulse_demo_3 3.7m" />
  <poly id="error_line.demo_3.citypulse_demo_3" type="citypulse_match_error" color="255,200,0" fill="false" layer="90" lineWidth="4" shape="27588.30,41946.18 27588.96,41949.82" />
  <poi id="csv.demo_4" type="citypulse_csv_point" color="0,80,255" x="22384.93" y="46377.03" layer="100" width="18" height="18" name="demo_4 CSV" />
  <poi id="matched.demo_4.junction.3935" type="citypulse_matched_junction" color="255,0,0" x="22384.95" y="46377.04" layer="100" width="18" height="18" name="demo_4 primary 3935 0.02m" />
  <poly id="error_line.demo_4.3935" type="citypulse_match_error" color="255,200,0" fill="false" layer="90" lineWidth="4" shape="22384.93,46377.03 22384.95,46377.04" />
  <poi id="csv.demo_5" type="citypulse_csv_point" color="0,80,255" x="24175.45" y="42427.29" layer="100" width="18" height="18" name="demo_5 CSV" />
  <poi id="matched.demo_5.junction.3807" type="citypulse_matched_junction" color="255,0,0" x="24175.48" y="42427.52" layer="100" width="18" height="18" name="demo_5 primary 3807 0.23m" />
  <poly id="error_line.demo_5.3807" type="citypulse_match_error" color="255,200,0" fill="false" layer="90" lineWidth="4" shape="24175.45,42427.29 24175.48,42427.52" />
  <poi id="csv.demo_6" type="citypulse_csv_point" color="0,80,255" x="25275.61" y="43193.51" layer="100" width="18" height="18" name="demo_6 CSV" />
  <poi id="matched.demo_6.junction.3936" type="citypulse_matched_junction" color="255,0,0" x="25275.64" y="43193.89" layer="100" width="18" height="18" name="demo_6 primary 3936 0.39m" />
  <poly id="error_line.demo_6.3936" type="citypulse_match_error" color="255,200,0" fill="false" layer="90" lineWidth="4" shape="25275.61,43193.51 25275.64,43193.89" />
  <poi id="csv.demo_7" type="citypulse_csv_point" color="0,80,255" x="12188.04" y="45910.72" layer="100" width="18" height="18" name="demo_7 CSV" />
  <poi id="matched.demo_7.junction.610" type="citypulse_matched_junction" color="255,0,0" x="12188.01" y="45911.15" layer="100" width="18" height="18" name="demo_7 primary 610 0.61m" />
  <poly id="error_line.demo_7.610" type="citypulse_match_error" color="255,200,0" fill="false" layer="90" lineWidth="4" shape="12188.04,45910.72 12188.01,45911.15" />
  <poi id="csv.demo_8" type="citypulse_csv_point" color="0,80,255" x="18772.05" y="42399.95" layer="100" width="18" height="18" name="demo_8 CSV" />
  <poi id="matched.demo_8.junction.4393" type="citypulse_matched_junction" color="255,0,0" x="18770.81" y="42400.78" layer="100" width="18" height="18" name="demo_8 primary 4393 11.64m" />
  <poly id="error_line.demo_8.4393" type="citypulse_match_error" color="255,200,0" fill="false" layer="90" lineWidth="4" shape="18772.05,42399.95 18770.81,42400.78" />
  <poi id="csv.demo_9" type="citypulse_csv_point" color="0,80,255" x="24536.21" y="44058.89" layer="100" width="18" height="18" name="demo_9 CSV" />
  <poi id="matched.demo_9.junction.3864" type="citypulse_matched_junction" color="255,0,0" x="24536.41" y="44060.55" layer="100" width="18" height="18" name="demo_9 primary 3864 1.67m" />
  <poly id="error_line.demo_9.3864" type="citypulse_match_error" color="255,200,0" fill="false" layer="90" lineWidth="4" shape="24536.21,44058.89 24536.41,44060.55" />
  <poi id="csv.demo_10" type="citypulse_csv_point" color="0,80,255" x="16753.96" y="45249.50" layer="100" width="18" height="18" name="demo_10 CSV" />
  <poi id="matched.demo_10.junction.4162" type="citypulse_matched_junction" color="255,0,0" x="16754.53" y="45250.06" layer="100" width="18" height="18" name="demo_10 primary 4162 0.8m" />
  <poly id="error_line.demo_10.4162" type="citypulse_match_error" color="255,200,0" fill="false" layer="90" lineWidth="4" shape="16753.96,45249.50 16754.53,45250.06" />
  <poi id="csv.demo_11" type="citypulse_csv_point" color="0,80,255" x="33148.21" y="11148.18" layer="100" width="18" height="18" name="demo_11 CSV" />
  <poi id="matched.demo_11.junction.4306" type="citypulse_matched_junction" color="255,0,0" x="33148.59" y="11149.91" layer="100" width="18" height="18" name="demo_11 primary 4306 15.03m" />
  <poly id="error_line.demo_11.4306" type="citypulse_match_error" color="255,200,0" fill="false" layer="90" lineWidth="4" shape="33148.21,11148.18 33148.59,11149.91" />
  <poi id="csv.demo_12" type="citypulse_csv_point" color="0,80,255" x="34155.48" y="11974.69" layer="100" width="18" height="18" name="demo_12 CSV" />
  <poi id="matched.demo_12.junction.182" type="citypulse_matched_junction" color="255,0,0" x="34155.11" y="11975.44" layer="100" width="18" height="18" name="demo_12 primary 182 0.83m" />
  <poly id="error_line.demo_12.182" type="citypulse_match_error" color="255,200,0" fill="false" layer="90" lineWidth="4" shape="34155.48,11974.69 34155.11,11975.44" />
  <poi id="csv.demo_13" type="citypulse_csv_point" color="0,80,255" x="27965.34" y="16942.57" layer="100" width="18" height="18" name="demo_13 CSV" />
  <poi id="matched.demo_13.junction.1204" type="citypulse_matched_junction" color="255,0,0" x="27966.14" y="16942.24" layer="100" width="18" height="18" name="demo_13 primary 1204 0.87m" />
  <poly id="error_line.demo_13.1204" type="citypulse_match_error" color="255,200,0" fill="false" layer="90" lineWidth="4" shape="27965.34,16942.57 27966.14,16942.24" />
  <poi id="csv.demo_14" type="citypulse_csv_point" color="0,80,255" x="29877.66" y="20438.34" layer="100" width="18" height="18" name="demo_14 CSV" />
  <poi id="matched.demo_14.junction.892" type="citypulse_matched_junction" color="255,0,0" x="29877.58" y="20438.50" layer="100" width="18" height="18" name="demo_14 primary 892 0.13m" />
  <poly id="error_line.demo_14.892" type="citypulse_match_error" color="255,200,0" fill="false" layer="90" lineWidth="4" shape="29877.66,20438.34 29877.58,20438.50" />
  <poi id="csv.demo_15" type="citypulse_csv_point" color="0,80,255" x="29629.85" y="20777.62" layer="100" width="18" height="18" name="demo_15 CSV" />
  <poi id="matched.demo_15.junction.1117" type="citypulse_matched_junction" color="255,0,0" x="29626.95" y="20776.87" layer="100" width="18" height="18" name="demo_15 primary 1117 2.99m" />
  <poly id="error_line.demo_15.1117" type="citypulse_match_error" color="255,200,0" fill="false" layer="90" lineWidth="4" shape="29629.85,20777.62 29626.95,20776.87" />
  <poi id="csv.demo_16" type="citypulse_csv_point" color="0,80,255" x="26622.55" y="21886.30" layer="100" width="18" height="18" name="demo_16 CSV" />
  <poi id="matched.demo_16.junction.3279" type="citypulse_matched_junction" color="255,0,0" x="26622.11" y="21886.09" layer="100" width="18" height="18" name="demo_16 primary 3279 0.49m" />
  <poly id="error_line.demo_16.3279" type="citypulse_match_error" color="255,200,0" fill="false" layer="90" lineWidth="4" shape="26622.55,21886.30 26622.11,21886.09" />
  <poi id="csv.demo_17" type="citypulse_csv_point" color="0,80,255" x="29186.75" y="18705.27" layer="100" width="18" height="18" name="demo_17 CSV" />
  <poi id="matched.demo_17.junction.3702" type="citypulse_matched_junction" color="255,0,0" x="29186.71" y="18705.61" layer="100" width="18" height="18" name="demo_17 primary 3702 0.34m" />
  <poly id="error_line.demo_17.3702" type="citypulse_match_error" color="255,200,0" fill="false" layer="90" lineWidth="4" shape="29186.75,18705.27 29186.71,18705.61" />
  <poi id="csv.demo_18" type="citypulse_csv_point" color="0,80,255" x="27611.50" y="18488.30" layer="100" width="18" height="18" name="demo_18 CSV" />
  <poi id="matched.demo_18.junction.4409" type="citypulse_matched_junction" color="255,0,0" x="27611.27" y="18487.78" layer="100" width="18" height="18" name="demo_18 primary 4409 0.57m" />
  <poly id="error_line.demo_18.4409" type="citypulse_match_error" color="255,200,0" fill="false" layer="90" lineWidth="4" shape="27611.50,18488.30 27611.27,18487.78" />
  <poi id="csv.demo_19" type="citypulse_csv_point" color="0,80,255" x="29731.56" y="20208.83" layer="100" width="18" height="18" name="demo_19 CSV" />
  <poi id="matched.demo_19.junction.891" type="citypulse_matched_junction" color="255,0,0" x="29730.78" y="20208.40" layer="100" width="18" height="18" name="demo_19 primary 891 0.9m" />
  <poly id="error_line.demo_19.891" type="citypulse_match_error" color="255,200,0" fill="false" layer="90" lineWidth="4" shape="29731.56,20208.83 29730.78,20208.40" />
  <poi id="csv.demo_20" type="citypulse_csv_point" color="0,80,255" x="28675.32" y="17839.84" layer="100" width="18" height="18" name="demo_20 CSV" />
  <poi id="matched.demo_20.junction.3637" type="citypulse_matched_junction" color="255,0,0" x="28675.73" y="17840.26" layer="100" width="18" height="18" name="demo_20 primary 3637 0.59m" />
  <poly id="error_line.demo_20.3637" type="citypulse_match_error" color="255,200,0" fill="false" layer="90" lineWidth="4" shape="28675.32,17839.84 28675.73,17840.26" />
</additional>