<?xml version="1.0" encoding="UTF-8"?>

<!-- generated on 2026-07-02 23:01:02 by Eclipse SUMO duarouter Version 1.12.0
<configuration xmlns:xsi="http://www.w3.org/2001/XMLSchema-instance" xsi:noNamespaceSchemaLocation="http://sumo.dlr.de/xsd/duarouterConfiguration.xsd">

    <input>
        <net-file value="xiongan_test.net.xml"/>
        <route-files value="trips.trips.xml"/>
    </input>

    <output>
        <output-file value="trips.trips.xml.tmp"/>
        <write-trips value="true"/>
    </output>

    <time>
        <begin value="0"/>
        <end value="300"/>
    </time>

    <report>
        <no-warnings value="true"/>
        <ignore-errors value="true"/>
        <no-step-log value="true"/>
    </report>

</configuration>
-->

<routes xmlns:xsi="http://www.w3.org/2001/XMLSchema-instance" xsi:noNamespaceSchemaLocation="http://sumo.dlr.de/xsd/routes_file.xsd">
    <trip id="0" depart="0.00" from="-1173" to="-1029"/>
    <trip id="1" depart="2.00" from="-1091" to="-1077"/>
    <trip id="2" depart="4.00" from="-1194" to="-1181"/>
    <trip id="3" depart="6.00" from="-1229" to="-1047"/>
    <trip id="4" depart="8.00" from="-1124" to="-1030"/>
    <trip id="5" depart="10.00" from="-1075" to="-1143"/>
    <trip id="6" depart="12.00" from="-1030" to="-1071"/>
    <trip id="7" depart="14.00" from="-1175" to="-1152"/>
    <trip id="8" depart="16.00" from="-1075" to="-1162"/>
    <trip id="9" depart="18.00" from="-1210" to="-1021"/>
    <trip id="10" depart="20.00" from="-1209" to="-1185"/>
    <trip id="11" depart="22.00" from="-1107" to="-1061"/>
    <trip id="12" depart="24.00" from="-1244" to="-1107"/>
    <trip id="13" depart="26.00" from="-1047" to="-1049"/>
    <trip id="14" depart="28.00" from="-1218" to="-1165"/>
    <trip id="15" depart="30.00" from="-1209" to="-1194"/>
    <trip id="16" depart="32.00" from="-1151" to="-1246"/>
    <trip id="17" depart="34.00" from="-1115" to="-1153"/>
    <trip id="18" depart="36.00" from="-1215" to="-1169"/>
    <trip id="19" depart="38.00" from="-1222" to="-1158"/>
    <trip id="20" depart="40.00" from="-1188" to="-1037"/>
    <trip id="21" depart="42.00" from="-1077" to="-1098"/>
    <trip id="22" depart="44.00" from="-1044" to="-1083"/>
    <trip id="23" depart="46.00" from="-1049" to="-1096"/>
    <trip id="24" depart="48.00" from="-1172" to="-1113"/>
    <trip id="25" depart="50.00" from="-1113" to="-1073"/>
    <trip id="26" depart="52.00" from="-1090" to="-1239"/>
    <trip id="27" depart="54.00" from="-1174" to="-1167"/>
    <trip id="28" depart="56.00" from="-1065" to="-1194"/>
    <trip id="29" depart="58.00" from="-1063" to="-1116"/>
    <trip id="30" depart="60.00" from="-1250" to="-1173"/>
    <trip id="31" depart="62.00" from="-1155" to="-1183"/>
    <trip id="32" depart="64.00" from="-1217" to="-1205"/>
    <trip id="33" depart="66.00" from="-1077" to="-1031"/>
    <trip id="34" depart="68.00" from="-1102" to="-1091"/>
    <trip id="35" depart="70.00" from="-1073" to="-1240"/>
    <trip id="36" depart="72.00" from="-1225" to="-1103"/>
    <trip id="37" depart="74.00" from="-1176" to="-1119"/>
    <trip id="38" depart="76.00" from="-1233" to="-1133"/>
    <trip id="39" depart="78.00" from="-1089" to="-1086"/>
    <trip id="40" depart="80.00" from="-1156" to="-1089"/>
    <trip id="41" depart="82.00" from="-1162" to="-1231"/>
    <trip id="42" depart="84.00" from="-1120" to="-1075"/>
    <trip id="43" depart="86.00" from="-1252" to="-1145"/>
    <trip id="44" depart="88.00" from="-1047" to="-1037"/>
    <trip id="45" depart="90.00" from="-1050" to="-1170"/>
    <trip id="46" depart="92.00" from="-1206" to="-1125"/>
    <trip id="47" depart="94.00" from="-1040" to="-1116"/>
    <trip id="48" depart="96.00" from="-1252" to="-1149"/>
    <trip id="49" depart="98.00" from="-1247" to="-1223"/>
    <trip id="50" depart="100.00" from="-1027" to="-1192"/>
    <trip id="51" depart="102.00" from="-1183" to="-1150"/>
    <trip id="52" depart="104.00" from="-1090" to="-1173"/>
    <trip id="53" depart="106.00" from="-1052" to="-1127"/>
    <trip id="54" depart="108.00" from="-1131" to="-1242"/>
    <trip id="55" depart="110.00" from="-1225" to="-1089"/>
    <trip id="56" depart="112.00" from="-1143" to="-1067"/>
    <trip id="57" depart="114.00" from="-1233" to="-1225"/>
    <trip id="58" depart="116.00" from="-1099" to="-1173"/>
    <trip id="59" depart="118.00" from="-1167" to="-1061"/>
    <trip id="60" depart="120.00" from="-1200" to="-1151"/>
    <trip id="61" depart="122.00" from="-1203" to="-1149"/>
    <trip id="62" depart="124.00" from="-1021" to="-1105"/>
    <trip id="63" depart="126.00" from="-1028" to="-1237"/>
    <trip id="64" depart="128.00" from="-1225" to="-1217"/>
    <trip id="65" depart="130.00" from="-1101" to="-1039"/>
    <trip id="66" depart="132.00" from="-1225" to="-1241"/>
    <trip id="67" depart="134.00" from="-1046" to="-1139"/>
    <trip id="68" depart="136.00" from="-1041" to="-1200"/>
    <trip id="69" depart="138.00" from="-1201" to="-1055"/>
    <trip id="70" depart="140.00" from="-1138" to="-1153"/>
    <trip id="71" depart="142.00" from="-1089" to="-1225"/>
    <trip id="72" depart="144.00" from="-1125" to="-1074"/>
    <trip id="73" depart="146.00" from="-1152" to="-1194"/>
    <trip id="74" depart="148.00" from="-1072" to="-1103"/>
    <trip id="75" depart="150.00" from="-1252" to="-1176"/>
    <trip id="76" depart="152.00" from="-1128" to="-1146"/>
    <trip id="77" depart="154.00" from="-1054" to="-1077"/>
    <trip id="78" depart="156.00" from="-1107" to="-1162"/>
    <trip id="79" depart="158.00" from="-1077" to="-1075"/>
    <trip id="80" depart="160.00" from="-1042" to="-1171"/>
    <trip id="81" depart="162.00" from="-1077" to="-1233"/>
    <trip id="82" depart="164.00" from="-1222" to="-1043"/>
    <trip id="83" depart="166.00" from="-1084" to="-1180"/>
    <trip id="84" depart="168.00" from="-1074" to="-1056"/>
    <trip id="85" depart="170.00" from="-1240" to="-1157"/>
    <trip id="86" depart="172.00" from="-1138" to="-1207"/>
    <trip id="87" depart="174.00" from="-1209" to="-1069"/>
    <trip id="88" depart="176.00" from="-1048" to="-1126"/>
    <trip id="89" depart="178.00" from="-1125" to="-1135"/>
    <trip id="90" depart="180.00" from="-1193" to="-1180"/>
    <trip id="91" depart="182.00" from="-1249" to="-1049"/>
    <trip id="92" depart="184.00" from="-1121" to="-1108"/>
    <trip id="93" depart="186.00" from="-1222" to="-1086"/>
    <trip id="94" depart="188.00" from="-1068" to="-1131"/>
    <trip id="95" depart="190.00" from="-1124" to="-1096"/>
    <trip id="96" depart="192.00" from="-1086" to="-1236"/>
    <trip id="97" depart="194.00" from="-1129" to="-1223"/>
    <trip id="98" depart="196.00" from="-1154" to="-1038"/>
    <trip id="99" depart="198.00" from="-1252" to="-1218"/>
    <trip id="100" depart="200.00" from="-1246" to="-1237"/>
    <trip id="101" depart="202.00" from="-1218" to="-1065"/>
    <trip id="102" depart="204.00" from="-1140" to="-1074"/>
    <trip id="103" depart="206.00" from="-1120" to="-1039"/>
    <trip id="104" depart="208.00" from="-1115" to="-1250"/>
    <trip id="105" depart="210.00" from="-1089" to="-1207"/>
    <trip id="106" depart="212.00" from="-1131" to="-1125"/>
    <trip id="107" depart="214.00" from="-1244" to="-1252"/>
    <trip id="108" depart="216.00" from="-1155" to="-1191"/>
    <trip id="109" depart="218.00" from="-1061" to="-1100"/>
    <trip id="110" depart="220.00" from="-1246" to="-1159"/>
    <trip id="111" depart="222.00" from="-1152" to="-1197"/>
    <trip id="112" depart="224.00" from="-1039" to="-1161"/>
    <trip id="113" depart="226.00" from="-1144" to="-1221"/>
    <trip id="114" depart="228.00" from="-1062" to="-1244"/>
    <trip id="115" depart="230.00" from="-1044" to="-1068"/>
    <trip id="116" depart="232.00" from="-1164" to="-1181"/>
    <trip id="117" depart="234.00" from="-1083" to="-1053"/>
    <trip id="118" depart="236.00" from="-1229" to="-1085"/>
    <trip id="119" depart="238.00" from="-1164" to="-1169"/>
    <trip id="120" depart="240.00" from="-1124" to="-1161"/>
    <trip id="121" depart="242.00" from="-1149" to="-1239"/>
    <trip id="122" depart="244.00" from="-1072" to="-1191"/>
    <trip id="123" depart="246.00" from="-1084" to="-1119"/>
    <trip id="124" depart="248.00" from="-1179" to="-1100"/>
    <trip id="125" depart="250.00" from="-1102" to="-1198"/>
    <trip id="126" depart="252.00" from="-1042" to="-1133"/>
    <trip id="127" depart="254.00" from="-1252" to="-1252"/>
    <trip id="128" depart="256.00" from="-1042" to="-1074"/>
    <trip id="129" depart="258.00" from="-1089" to="-1238"/>
    <trip id="130" depart="260.00" from="-1226" to="-1226"/>
    <trip id="131" depart="262.00" from="-1113" to="-1063"/>
    <trip id="132" depart="264.00" from="-1215" to="-1189"/>
    <trip id="133" depart="266.00" from="-1167" to="-1250"/>
    <trip id="134" depart="268.00" from="-1176" to="-1021"/>
    <trip id="135" depart="270.00" from="-1211" to="-1100"/>
    <trip id="136" depart="272.00" from="-1178" to="-1239"/>
    <trip id="137" depart="274.00" from="-1056" to="-1052"/>
    <trip id="138" depart="276.00" from="-1050" to="-1154"/>
    <trip id="139" depart="278.00" from="-1091" to="-1165"/>
    <trip id="140" depart="280.00" from="-1190" to="-1072"/>
    <trip id="141" depart="282.00" from="-1172" to="-1089"/>
    <trip id="142" depart="284.00" from="-1141" to="-1233"/>
    <trip id="143" depart="286.00" from="-1218" to="-1048"/>
    <trip id="144" depart="288.00" from="-1125" to="-1096"/>
    <trip id="145" depart="290.00" from="-1021" to="-1204"/>
    <trip id="146" depart="292.00" from="-1172" to="-1089"/>
    <trip id="147" depart="294.00" from="-1196" to="-1153"/>
    <trip id="148" depart="296.00" from="-1126" to="-1021"/>
    <trip id="149" depart="298.00" from="-1042" to="-1227"/>
</routes>
