<?xml version="1.0" encoding="UTF-8"?>

<!-- generated on 2026-07-02 23:01:02 by Eclipse SUMO duarouter Version 1.12.0
<configuration xmlns:xsi="http://www.w3.org/2001/XMLSchema-instance" xsi:noNamespaceSchemaLocation="http://sumo.dlr.de/xsd/duarouterConfiguration.xsd">

    <input>
        <net-file value="xiongan_test.net.xml"/>
        <route-files value="trips.trips.xml"/>
    </input>

    <output>
        <output-file value="xiongan_test.rou.xml"/>
        <alternatives-output value="xiongan_test.rou.alt.xml"/>
    </output>

    <time>
        <begin value="0"/>
        <end value="300"/>
    </time>

    <report>
        <no-warnings value="true"/>
        <ignore-errors value="true"/>
        <no-step-log value="true"/>
    </report>

</configuration>
-->

<routes xmlns:xsi="http://www.w3.org/2001/XMLSchema-instance" xsi:noNamespaceSchemaLocation="http://sumo.dlr.de/xsd/routes_file.xsd">
    <vehicle id="0" depart="0.00">
        <route edges="-1173 -1221 -1222 -1223 -1224 -1225 -1029"/>
    </vehicle>
    <vehicle id="1" depart="2.00">
        <route edges="-1091 -1183 -1185 -1100 -1101 -1102 -1103 -1104 -1105 -1123 -1124 -1125 -1089 -1077"/>
    </vehicle>
    <vehicle id="2" depart="4.00">
        <route edges="-1194 -1175 -1176 -1177 -1178 -1179 -1185 -1100 -1101 -1181"/>
    </vehicle>
    <vehicle id="3" depart="6.00">
        <route edges="-1229 -1208 -1161 -1047"/>
    </vehicle>
    <vehicle id="4" depart="8.00">
        <route edges="-1124 -1125 -1032 -1031 -1030"/>
    </vehicle>
    <vehicle id="5" depart="10.00">
        <route edges="-1075 -1074 -1142 -1143"/>
    </vehicle>
    <vehicle id="6" depart="12.00">
        <route edges="-1030 -1029 -1157 -1162 -1085 -1086 -1087 -1072 -1071"/>
    </vehicle>
    <vehicle id="7" depart="14.00">
        <route edges="-1175 -1176 -1177 -1137 -1138 -1152"/>
    </vehicle>
    <vehicle id="8" depart="16.00">
        <route edges="-1075 -1074 -1149 -1150 -1151 -1156 -1157 -1162"/>
    </vehicle>
    <vehicle id="9" depart="18.00">
        <route edges="-1210 -1211 -1212 -1204 -1096 -1021"/>
    </vehicle>
    <vehicle id="10" depart="20.00">
        <route edges="-1209 -1210 -1191 -1192 -1193 -1194 -1175 -1176 -1177 -1178 -1179 -1185"/>
    </vehicle>
    <vehicle id="11" depart="22.00">
        <route edges="-1107 -1041 -1061"/>
    </vehicle>
    <vehicle id="12" depart="24.00">
        <route edges="-1244 -1245 -1246 -1121 -1107"/>
    </vehicle>
    <vehicle id="13" depart="26.00">
        <route edges="-1047 -1231 -1084 -1085 -1086 -1087 -1072 -1049"/>
    </vehicle>
    <vehicle id="14" depart="28.00">
        <route edges="-1218 -1177 -1137 -1138 -1164 -1165"/>
    </vehicle>
    <vehicle id="15" depart="30.00">
        <route edges="-1209 -1210 -1191 -1192 -1193 -1194"/>
    </vehicle>
    <vehicle id="16" depart="32.00">
        <route edges="-1151 -1139 -1140 -1141 -1251 -1245 -1246"/>
    </vehicle>
    <vehicle id="17" depart="34.00">
        <route edges="-1115 -1183 -1185 -1100 -1056 -1055 -1153"/>
    </vehicle>
    <vehicle id="18" depart="36.00">
        <route edges="-1215 -1216 -1217 -1218 -1083 -1084 -1085 -1086 -1169"/>
    </vehicle>
    <vehicle id="19" depart="38.00">
        <route edges="-1222 -1223 -1065 -1155 -1156 -1157 -1158"/>
    </vehicle>
    <vehicle id="20" depart="40.00">
        <route edges="-1188 -1204 -1037"/>
    </vehicle>
    <vehicle id="21" depart="42.00">
        <route edges="-1077 -1097 -1098"/>
    </vehicle>
    <vehicle id="22" depart="44.00">
        <route edges="-1044 -1154 -1155 -1152 -1153 -1218 -1083"/>
    </vehicle>
    <vehicle id="23" depart="46.00">
        <route edges="-1049 -1168 -1087 -1088 -1126 -1127 -1131 -1204 -1096"/>
    </vehicle>
    <vehicle id="24" depart="48.00">
        <route edges="-1172 -1112 -1113"/>
    </vehicle>
    <vehicle id="25" depart="50.00">
        <route edges="-1113 -1044 -1154 -1155 -1139 -1140 -1141 -1073"/>
    </vehicle>
    <vehicle id="26" depart="52.00">
        <route edges="-1090 -1213 -1131 -1129 -1118 -1119 -1120 -1238 -1239"/>
    </vehicle>
    <vehicle id="27" depart="54.00">
        <route edges="-1174 -1207 -1208 -1209 -1210 -1167"/>
    </vehicle>
    <vehicle id="28" depart="56.00">
        <route edges="-1065 -1155 -1156 -1157 -1158 -1193 -1194"/>
    </vehicle>
    <vehicle id="29" depart="58.00">
        <route edges="-1063 -1179 -1184 -1116"/>
    </vehicle>
    <vehicle id="30" depart="60.00">
        <route edges="-1250 -1251 -1252 -1111 -1173"/>
    </vehicle>
    <vehicle id="31" depart="62.00">
        <route edges="-1155 -1164 -1165 -1181 -1114 -1115 -1183"/>
    </vehicle>
    <vehicle id="32" depart="64.00">
        <route edges="-1217 -1218 -1219 -1207 -1208 -1209 -1210 -1211 -1212 -1204 -1205"/>
    </vehicle>
    <vehicle id="33" depart="66.00">
        <route edges="-1077 -1097 -1145 -1147 -1148 -1073 -1031"/>
    </vehicle>
    <vehicle id="34" depart="68.00">
        <route edges="-1102 -1103 -1172 -1112 -1113 -1114 -1115 -1183 -1185 -1201 -1091"/>
    </vehicle>
    <vehicle id="35" depart="70.00">
        <route edges="-1073 -1031 -1030 -1029 -1028 -1027 -1177 -1178 -1240"/>
    </vehicle>
    <vehicle id="36" depart="72.00">
        <route edges="-1225 -1029 -1163 -1164 -1165 -1102 -1103"/>
    </vehicle>
    <vehicle id="37" depart="74.00">
        <route edges="-1176 -1083 -1084 -1085 -1086 -1087 -1088 -1089 -1119"/>
    </vehicle>
    <vehicle id="38" depart="76.00">
        <route edges="-1233 -1234 -1101 -1102 -1103 -1104 -1133"/>
    </vehicle>
    <vehicle id="39" depart="78.00">
        <route edges="-1089 -1119 -1147 -1148 -1149 -1150 -1225 -1086"/>
    </vehicle>
    <vehicle id="40" depart="80.00">
        <route edges="-1156 -1085 -1086 -1087 -1088 -1089"/>
    </vehicle>
    <vehicle id="41" depart="82.00">
        <route edges="-1162 -1157 -1047 -1231"/>
    </vehicle>
    <vehicle id="42" depart="84.00">
        <route edges="-1120 -1121 -1122 -1109 -1110 -1075"/>
    </vehicle>
    <vehicle id="43" depart="86.00">
        <route edges="-1252 -1105 -1123 -1124 -1143 -1135 -1145"/>
    </vehicle>
    <vehicle id="44" depart="88.00">
        <route edges="-1047 -1052 -1208 -1209 -1210 -1211 -1212 -1204 -1037"/>
    </vehicle>
    <vehicle id="45" depart="90.00">
        <route edges="-1050 -1249 -1250 -1149 -1170"/>
    </vehicle>
    <vehicle id="46" depart="92.00">
        <route edges="-1206 -1188 -1129 -1118 -1119 -1147 -1125"/>
    </vehicle>
    <vehicle id="47" depart="94.00">
        <route edges="-1040 -1145 -1147 -1148 -1149 -1150 -1151 -1152 -1153 -1178 -1179 -1184 -1116"/>
    </vehicle>
    <vehicle id="48" depart="96.00">
        <route edges="-1252 -1105 -1123 -1124 -1148 -1149"/>
    </vehicle>
    <vehicle id="49" depart="98.00">
        <route edges="-1247 -1248 -1249 -1250 -1251 -1252 -1111 -1112 -1222 -1223"/>
    </vehicle>
    <vehicle id="50" depart="100.00">
        <route edges="-1027 -1219 -1207 -1208 -1209 -1210 -1191 -1192"/>
    </vehicle>
    <vehicle id="51" depart="102.00">
        <route edges="-1183 -1216 -1217 -1137 -1138 -1139 -1140 -1150"/>
    </vehicle>
    <vehicle id="52" depart="104.00">
        <route edges="-1090 -1091 -1183 -1185 -1100 -1101 -1102 -1103 -1172 -1173"/>
    </vehicle>
    <vehicle id="53" depart="106.00">
        <route edges="-1052 -1208 -1209 -1210 -1211 -1212 -1129 -1118 -1033 -1126 -1127"/>
    </vehicle>
    <vehicle id="54" depart="108.00">
        <route edges="-1131 -1189 -1190 -1191 -1192 -1161 -1162 -1163 -1164 -1242"/>
    </vehicle>
    <vehicle id="55" depart="110.00">
        <route edges="-1225 -1086 -1087 -1088 -1089"/>
    </vehicle>
    <vehicle id="56" depart="112.00">
        <route edges="-1143 -1120 -1069 -1068 -1067"/>
    </vehicle>
    <vehicle id="57" depart="114.00">
        <route edges="-1233 -1241 -1155 -1139 -1225"/>
    </vehicle>
    <vehicle id="58" depart="116.00">
        <route edges="-1099 -1108 -1109 -1110 -1111 -1173"/>
    </vehicle>
    <vehicle id="59" depart="118.00">
        <route edges="-1167 -1168 -1169 -1141 -1142 -1143 -1135 -1098 -1061"/>
    </vehicle>
    <vehicle id="60" depart="120.00">
        <route edges="-1200 -1127 -1131 -1129 -1118 -1119 -1147 -1148 -1149 -1150 -1151"/>
    </vehicle>
    <vehicle id="61" depart="122.00">
        <route edges="-1203 -1175 -1176 -1177 -1137 -1138 -1139 -1140 -1141 -1149"/>
    </vehicle>
    <vehicle id="62" depart="124.00">
        <route edges="-1021 -1033 -1032 -1250 -1251 -1252 -1105"/>
    </vehicle>
    <vehicle id="63" depart="126.00">
        <route edges="-1028 -1027 -1177 -1178 -1179 -1216 -1237"/>
    </vehicle>
    <vehicle id="64" depart="128.00">
        <route edges="-1225 -1029 -1028 -1027 -1177 -1178 -1060 -1217"/>
    </vehicle>
    <vehicle id="65" depart="130.00">
        <route edges="-1101 -1102 -1103 -1104 -1105 -1123 -1124 -1143 -1135 -1039"/>
    </vehicle>
    <vehicle id="66" depart="132.00">
        <route edges="-1225 -1029 -1028 -1232 -1233 -1241"/>
    </vehicle>
    <vehicle id="67" depart="134.00">
        <route edges="-1046 -1176 -1177 -1137 -1138 -1139"/>
    </vehicle>
    <vehicle id="68" depart="136.00">
        <route edges="-1041 -1040 -1145 -1147 -1148 -1073 -1072 -1200"/>
    </vehicle>
    <vehicle id="69" depart="138.00">
        <route edges="-1201 -1091 -1183 -1185 -1100 -1056 -1055"/>
    </vehicle>
    <vehicle id="70" depart="140.00">
        <route edges="-1138 -1152 -1153"/>
    </vehicle>
    <vehicle id="71" depart="142.00">
        <route edges="-1089 -1119 -1147 -1148 -1149 -1150 -1225"/>
    </vehicle>
    <vehicle id="72" depart="144.00">
        <route edges="-1125 -1089 -1119 -1120 -1069 -1068 -1074"/>
    </vehicle>
    <vehicle id="73" depart="146.00">
        <route edges="-1152 -1054 -1053 -1052 -1194"/>
    </vehicle>
    <vehicle id="74" depart="148.00">
        <route edges="-1072 -1071 -1190 -1191 -1192 -1161 -1162 -1163 -1164 -1165 -1102 -1103"/>
    </vehicle>
    <vehicle id="75" depart="150.00">
        <route edges="-1252 -1111 -1112 -1113 -1044 -1154 -1155 -1156 -1157 -1158 -1193 -1194 -1175 -1176"/>
    </vehicle>
    <vehicle id="76" depart="152.00">
        <route edges="-1128 -1129 -1118 -1119 -1147 -1148 -1149 -1150 -1151 -1152 -1153 -1146"/>
    </vehicle>
    <vehicle id="77" depart="154.00">
        <route edges="-1054 -1084 -1085 -1086 -1087 -1088 -1089 -1077"/>
    </vehicle>
    <vehicle id="78" depart="156.00">
        <route edges="-1107 -1108 -1109 -1110 -1111 -1112 -1113 -1044 -1154 -1155 -1156 -1157 -1162"/>
    </vehicle>
    <vehicle id="79" depart="158.00">
        <route edges="-1077 -1097 -1145 -1120 -1121 -1122 -1109 -1110 -1075"/>
    </vehicle>
    <vehicle id="80" depart="160.00">
        <route edges="-1042 -1075 -1067 -1171"/>
    </vehicle>
    <vehicle id="81" depart="162.00">
        <route edges="-1077 -1097 -1145 -1147 -1148 -1149 -1150 -1151 -1152 -1233"/>
    </vehicle>
    <vehicle id="82" depart="164.00">
        <route edges="-1222 -1103 -1172 -1173 -1043"/>
    </vehicle>
    <vehicle id="83" depart="166.00">
        <route edges="-1084 -1163 -1152 -1153 -1178 -1179 -1180"/>
    </vehicle>
    <vehicle id="84" depart="168.00">
        <route edges="-1074 -1149 -1150 -1151 -1164 -1165 -1181 -1114 -1057 -1056"/>
    </vehicle>
    <vehicle id="85" depart="170.00">
        <route edges="-1240 -1241 -1155 -1156 -1157"/>
    </vehicle>
    <vehicle id="86" depart="172.00">
        <route edges="-1138 -1156 -1157 -1158 -1193 -1194 -1207"/>
    </vehicle>
    <vehicle id="87" depart="174.00">
        <route edges="-1209 -1210 -1211 -1212 -1129 -1118 -1119 -1120 -1069"/>
    </vehicle>
    <vehicle id="88" depart="176.00">
        <route edges="-1048 -1162 -1085 -1086 -1087 -1088 -1126"/>
    </vehicle>
    <vehicle id="89" depart="178.00">
        <route edges="-1125 -1089 -1119 -1135"/>
    </vehicle>
    <vehicle id="90" depart="180.00">
        <route edges="-1193 -1194 -1175 -1176 -1177 -1178 -1179 -1180"/>
    </vehicle>
    <vehicle id="91" depart="182.00">
        <route edges="-1249 -1088 -1126 -1127 -1131 -1189 -1248 -1049"/>
    </vehicle>
    <vehicle id="92" depart="184.00">
        <route edges="-1121 -1107 -1108"/>
    </vehicle>
    <vehicle id="93" depart="186.00">
        <route edges="-1222 -1223 -1224 -1225 -1086"/>
    </vehicle>
    <vehicle id="94" depart="188.00">
        <route edges="-1068 -1074 -1142 -1125 -1126 -1127 -1131"/>
    </vehicle>
    <vehicle id="95" depart="190.00">
        <route edges="-1124 -1125 -1126 -1127 -1131 -1204 -1096"/>
    </vehicle>
    <vehicle id="96" depart="192.00">
        <route edges="-1086 -1169 -1150 -1151 -1164 -1165 -1181 -1114 -1236"/>
    </vehicle>
    <vehicle id="97" depart="194.00">
        <route edges="-1129 -1118 -1119 -1120 -1121 -1122 -1109 -1110 -1111 -1112 -1222 -1223"/>
    </vehicle>
    <vehicle id="98" depart="196.00">
        <route edges="-1154 -1155 -1139 -1140 -1141 -1142 -1143 -1135 -1039 -1038"/>
    </vehicle>
    <vehicle id="99" depart="198.00">
        <route edges="-1252 -1111 -1112 -1113 -1114 -1115 -1183 -1216 -1217 -1218"/>
    </vehicle>
    <vehicle id="100" depart="200.00">
        <route edges="-1246 -1121 -1122 -1109 -1110 -1111 -1112 -1113 -1114 -1115 -1183 -1216 -1237"/>
    </vehicle>
    <vehicle id="101" depart="202.00">
        <route edges="-1218 -1177 -1137 -1138 -1139 -1140 -1170 -1066 -1065"/>
    </vehicle>
    <vehicle id="102" depart="204.00">
        <route edges="-1140 -1170 -1244 -1074"/>
    </vehicle>
    <vehicle id="103" depart="206.00">
        <route edges="-1120 -1238 -1040 -1039"/>
    </vehicle>
    <vehicle id="104" depart="208.00">
        <route edges="-1115 -1183 -1185 -1100 -1101 -1154 -1155 -1156 -1085 -1086 -1087 -1250"/>
    </vehicle>
    <vehicle id="105" depart="210.00">
        <route edges="-1089 -1077 -1038 -1188 -1189 -1190 -1191 -1192 -1193 -1194 -1207"/>
    </vehicle>
    <vehicle id="106" depart="212.00">
        <route edges="-1131 -1129 -1118 -1119 -1147 -1125"/>
    </vehicle>
    <vehicle id="107" depart="214.00">
        <route edges="-1244 -1252"/>
    </vehicle>
    <vehicle id="108" depart="216.00">
        <route edges="-1155 -1156 -1157 -1158 -1209 -1210 -1191"/>
    </vehicle>
    <vehicle id="109" depart="218.00">
        <route edges="-1061 -1121 -1122 -1109 -1110 -1111 -1112 -1113 -1114 -1115 -1183 -1185 -1100"/>
    </vehicle>
    <vehicle id="110" depart="220.00">
        <route edges="-1246 -1238 -1040 -1145 -1147 -1148 -1149 -1150 -1151 -1156 -1157 -1158 -1159"/>
    </vehicle>
    <vehicle id="111" depart="222.00">
        <route edges="-1152 -1054 -1053 -1197"/>
    </vehicle>
    <vehicle id="112" depart="224.00">
        <route edges="-1039 -1038 -1188 -1189 -1190 -1191 -1192 -1161"/>
    </vehicle>
    <vehicle id="113" depart="226.00">
        <route edges="-1144 -1145 -1120 -1121 -1122 -1109 -1110 -1111 -1173 -1221"/>
    </vehicle>
    <vehicle id="114" depart="228.00">
        <route edges="-1062 -1061 -1069 -1068 -1074 -1149 -1170 -1244"/>
    </vehicle>
    <vehicle id="115" depart="230.00">
        <route edges="-1044 -1102 -1103 -1104 -1105 -1123 -1068"/>
    </vehicle>
    <vehicle id="116" depart="232.00">
        <route edges="-1164 -1165 -1181"/>
    </vehicle>
    <vehicle id="117" depart="234.00">
        <route edges="-1083 -1053"/>
    </vehicle>
    <vehicle id="118" depart="236.00">
        <route edges="-1229 -1208 -1161 -1162 -1085"/>
    </vehicle>
    <vehicle id="119" depart="238.00">
        <route edges="-1164 -1155 -1156 -1085 -1086 -1169"/>
    </vehicle>
    <vehicle id="120" depart="240.00">
        <route edges="-1124 -1125 -1126 -1127 -1131 -1189 -1190 -1191 -1192 -1161"/>
    </vehicle>
    <vehicle id="121" depart="242.00">
        <route edges="-1149 -1170 -1244 -1245 -1246 -1238 -1239"/>
    </vehicle>
    <vehicle id="122" depart="244.00">
        <route edges="-1072 -1071 -1190 -1191"/>
    </vehicle>
    <vehicle id="123" depart="246.00">
        <route edges="-1084 -1085 -1086 -1087 -1088 -1089 -1119"/>
    </vehicle>
    <vehicle id="124" depart="248.00">
        <route edges="-1179 -1185 -1100"/>
    </vehicle>
    <vehicle id="125" depart="250.00">
        <route edges="-1102 -1223 -1065 -1155 -1156 -1157 -1198"/>
    </vehicle>
    <vehicle id="126" depart="252.00">
        <route edges="-1042 -1133"/>
    </vehicle>
    <vehicle id="127" depart="254.00">
        <route edges="-1252"/>
    </vehicle>
    <vehicle id="128" depart="256.00">
        <route edges="-1042 -1075 -1074"/>
    </vehicle>
    <vehicle id="129" depart="258.00">
        <route edges="-1089 -1119 -1120 -1238"/>
    </vehicle>
    <vehicle id="130" depart="260.00">
        <route edges="-1226"/>
    </vehicle>
    <vehicle id="131" depart="262.00">
        <route edges="-1113 -1044 -1154 -1064 -1063"/>
    </vehicle>
    <vehicle id="132" depart="264.00">
        <route edges="-1215 -1185 -1201 -1213 -1131 -1189"/>
    </vehicle>
    <vehicle id="133" depart="266.00">
        <route edges="-1167 -1168 -1087 -1250"/>
    </vehicle>
    <vehicle id="134" depart="268.00">
        <route edges="-1176 -1177 -1137 -1138 -1139 -1140 -1141 -1142 -1143 -1135 -1039 -1021"/>
    </vehicle>
    <vehicle id="135" depart="270.00">
        <route edges="-1211 -1190 -1191 -1192 -1193 -1194 -1175 -1176 -1177 -1178 -1179 -1185 -1100"/>
    </vehicle>
    <vehicle id="136" depart="272.00">
        <route edges="-1178 -1240 -1241 -1242 -1243 -1244 -1245 -1246 -1238 -1239"/>
    </vehicle>
    <vehicle id="137" depart="274.00">
        <route edges="-1056 -1055 -1054 -1053 -1052"/>
    </vehicle>
    <vehicle id="138" depart="276.00">
        <route edges="-1050 -1249 -1031 -1030 -1029 -1163 -1164 -1165 -1154"/>
    </vehicle>
    <vehicle id="139" depart="278.00">
        <route edges="-1091 -1183 -1185 -1100 -1101 -1154 -1165"/>
    </vehicle>
    <vehicle id="140" depart="280.00">
        <route edges="-1190 -1167 -1168 -1087 -1072"/>
    </vehicle>
    <vehicle id="141" depart="282.00">
        <route edges="-1172 -1112 -1222 -1103 -1104 -1105 -1123 -1124 -1125 -1089"/>
    </vehicle>
    <vehicle id="142" depart="284.00">
        <route edges="-1141 -1149 -1150 -1151 -1152 -1233"/>
    </vehicle>
    <vehicle id="143" depart="286.00">
        <route edges="-1218 -1083 -1084 -1085 -1226 -1048"/>
    </vehicle>
    <vehicle id="144" depart="288.00">
        <route edges="-1125 -1126 -1127 -1131 -1204 -1096"/>
    </vehicle>
    <vehicle id="145" depart="290.00">
        <route edges="-1021 -1033 -1126 -1127 -1131 -1204"/>
    </vehicle>
    <vehicle id="146" depart="292.00">
        <route edges="-1172 -1112 -1222 -1103 -1104 -1105 -1123 -1124 -1125 -1089"/>
    </vehicle>
    <vehicle id="147" depart="294.00">
        <route edges="-1196 -1231 -1232 -1153"/>
    </vehicle>
    <vehicle id="148" depart="296.00">
        <route edges="-1126 -1127 -1131 -1204 -1096 -1021"/>
    </vehicle>
    <vehicle id="149" depart="298.00">
        <route edges="-1042 -1075 -1074 -1149 -1150 -1225 -1226 -1227"/>
    </vehicle>
</routes>
