<?xml version='1.0' encoding='UTF-8'?>
<!-- generated on 2026-07-02 22:41:12 by Eclipse SUMO netconvert Version 1.12.0
<configuration xmlns:xsi="http://www.w3.org/2001/XMLSchema-instance" xsi:noNamespaceSchemaLocation="http://sumo.dlr.de/xsd/netconvertConfiguration.xsd">

    <input>
        <type-files value="/home/kemove/devdata1/zrl/software/CARLA_0.9.16/Co-Simulation/Sumo/util/data/opendrive_netconvert.typ.xml"/>
        <opendrive-files value="/home/kemove/devdata1/zrl/citypulse-v2x-sim/data/maps/carla/xiongan_test.xodr"/>
    </input>

    <output>
        <output-file value="/tmp/tmphwyirg95/xiongan_test.net.xml"/>
        <output.original-names value="true"/>
    </output>

    <processing>
        <geometry.remove value="true"/>
        <geometry.min-radius.fix value="true"/>
        <geometry.max-grade.fix value="false"/>
    </processing>

    <tls_building>
        <tls.discard-loaded value="true"/>
        <tls.left-green.time value="0"/>
    </tls_building>

    <junctions>
        <rectangular-lane-cut value="true"/>
    </junctions>

    <formats>
        <opendrive.import-all-lanes value="true"/>
        <opendrive.curve-resolution value="1"/>
    </formats>

    <report>
        <aggregate-warnings value="5"/>
    </report>

</configuration>
-->
<net xmlns:xsi="http://www.w3.org/2001/XMLSchema-instance" version="1.9" junctionCornerDetail="5" rectangularLaneCut="true" limitTurnSpeed="5.50" xsi:noNamespaceSchemaLocation="http://sumo.dlr.de/xsd/net_file.xsd">
  <location netOffset="-5514091.06,-13151280.76" convBoundary="0.00,0.00,3899.71,5244.20" origBoundary="0.000000,0.000000,0.000000,0.000000" projParameter="+proj=tmerc          "/>
  <type id="bidirectional" priority="1" speed="1.39" disallow="pedestrian tram rail_urban rail rail_electric rail_fast ship" width="3.65"/>
  <type id="biking" priority="-1" speed="5.56" allow="bicycle" width="1.50"/>
  <type id="border" priority="0" speed="1.39" disallow="all" discard="1" width="0.10"/>
  <type id="driving" priority="1" speed="13.89" disallow="pedestrian tram rail_urban rail rail_electric rail_fast ship" width="3.65"/>
  <type id="entry" priority="1" speed="22.22" disallow="pedestrian tram rail_urban rail rail_electric rail_fast ship" width="3.65"/>
  <type id="exit" priority="1" speed="22.22" disallow="pedestrian tram rail_urban rail rail_electric rail_fast ship" width="3.65"/>
  <type id="median" priority="0" speed="1.39" disallow="all" discard="1" width="0.10"/>
  <type id="mwyEntry" priority="1" speed="22.22" allow="private emergency authority army vip passenger hov taxi bus coach delivery truck trailer motorcycle evehicle custom1 custom2" width="3.65"/>
  <type id="mwyExit" priority="1" speed="22.22" allow="private emergency authority army vip passenger hov taxi bus coach delivery truck trailer motorcycle evehicle custom1 custom2" width="3.65"/>
  <type id="none" priority="0" speed="1.39" disallow="all" discard="1" width="1.00"/>
  <type id="offRamp" priority="1" speed="22.22" allow="private emergency authority army vip passenger hov taxi bus coach delivery truck trailer motorcycle evehicle custom1 custom2" width="3.65"/>
  <type id="onRamp" priority="1" speed="22.22" allow="private emergency authority army vip passenger hov taxi bus coach delivery truck trailer motorcycle evehicle custom1 custom2" width="3.65"/>
  <type id="parking" priority="1" speed="1.39" disallow="pedestrian tram rail_urban rail rail_electric rail_fast ship" width="2.50"/>
  <type id="rail" priority="3" speed="33.33" allow="rail_urban rail rail_electric rail_fast" width="3.65"/>
  <type id="restricted" priority="0" speed="13.89" disallow="all" width="3.65"/>
  <type id="roadWorks" priority="0" speed="1.39" allow="authority" width="3.65"/>
  <type id="shoulder" priority="0" speed="1.39" disallow="all" discard="1" width="1.00"/>
  <type id="sidewalk" priority="-2" speed="2.78" allow="pedestrian" width="2.50"/>
  <type id="special1" priority="1" speed="22.22" allow="custom1" discard="1" width="3.65"/>
  <type id="special2" priority="1" speed="22.22" allow="custom2" discard="1" width="3.65"/>
  <type id="special3" priority="1" speed="22.22" allow="custom1 custom2" discard="1" width="3.65"/>
  <type id="stop" priority="1" speed="13.89" disallow="pedestrian tram rail_urban rail rail_electric rail_fast ship" width="3.65"/>
  <type id="tram" priority="2" speed="13.89" allow="tram" width="3.65"/>
  <edge id=":1_0" function="internal">
    <lane id=":1_0_0" index="0" disallow="pedestrian tram rail_urban rail rail_electric rail_fast ship" speed="6.63" length="9.35" width="3.35" shape="1079.46,3211.28 1077.19,3209.99 1075.08,3209.72 1073.12,3210.45 1071.31,3212.19">
      <param key="origId" value="1700_-1"/>
    </lane>
  </edge>
  <edge id=":1_1" function="internal">
    <lane id=":1_1_0" index="0" disallow="pedestrian tram rail_urban rail rail_electric rail_fast ship" speed="27.78" length="14.91" width="3.35" shape="1079.46,3211.28 1067.63,3202.18">
      <param key="origId" value="1701_-2"/>
    </lane>
    <lane id=":1_1_1" index="1" disallow="pedestrian tram rail_urban rail rail_electric rail_fast ship" speed="27.78" length="14.91" width="3.35" shape="1081.50,3208.62 1069.69,3199.53">
      <param key="origId" value="1701_-1"/>
    </lane>
  </edge>
  <edge id=":1_3" function="internal">
    <lane id=":1_3_0" index="0" disallow="pedestrian tram rail_urban rail rail_electric rail_fast ship" speed="11.51" length="19.64" width="3.35" shape="1081.50,3208.62 1080.99,3204.22 1083.38,3196.37 1086.30,3190.00">
      <param key="origId" value="1702_-1"/>
    </lane>
  </edge>
  <edge id=":1_4" function="internal">
    <lane id=":1_4_0" index="0" disallow="pedestrian tram rail_urban rail rail_electric rail_fast ship" speed="7.66" length="24.73" width="3.35" shape="1081.50,3208.62 1078.72,3200.35 1079.76,3195.04 1084.63,3192.70 1089.82,3193.06">
      <param key="origId" value="1703_-1"/>
    </lane>
  </edge>
  <edge id=":1_16" function="internal">
    <lane id=":1_16_0" index="0" disallow="pedestrian tram rail_urban rail rail_electric rail_fast ship" speed="11.51" length="10.82" width="3.35" shape="1086.30,3190.00 1087.37,3187.65 1091.69,3180.64">
      <param key="origId" value="1702_-1"/>
    </lane>
  </edge>
  <edge id=":1_17" function="internal">
    <lane id=":1_17_0" index="0" disallow="pedestrian tram rail_urban rail rail_electric rail_fast ship" speed="7.66" length="3.53" width="3.35" shape="1089.82,3193.06 1093.34,3193.31">
      <param key="origId" value="1703_-1"/>
    </lane>
  </edge>
  <edge id=":1_5" function="internal">
    <lane id=":1_5_0" index="0" disallow="pedestrian tram rail_urban rail rail_electric rail_fast ship" speed="6.58" length="9.17" width="3.35" shape="1094.35,3182.67 1093.12,3184.87 1092.88,3186.93 1093.63,3188.86 1095.38,3190.66">
      <param key="origId" value="1704_-1"/>
    </lane>
  </edge>
  <edge id=":1_6" function="internal">
    <lane id=":1_6_0" index="0" disallow="pedestrian tram rail_urban rail rail_electric rail_fast ship" speed="22.22" length="37.45" width="3.35" shape="1094.35,3182.67 1071.31,3212.19">
      <param key="origId" value="1705_-1"/>
    </lane>
  </edge>
  <edge id=":1_7" function="internal">
    <lane id=":1_7_0" index="0" disallow="pedestrian tram rail_urban rail rail_electric rail_fast ship" speed="11.51" length="30.61" width="3.35" shape="1094.35,3182.67 1088.68,3188.65 1081.23,3194.71 1074.17,3198.97 1069.69,3199.53">
      <param key="origId" value="1706_-1"/>
    </lane>
  </edge>
  <edge id=":1_8" function="internal">
    <lane id=":1_8_0" index="0" disallow="pedestrian tram rail_urban rail rail_electric rail_fast ship" speed="6.60" length="9.28" width="3.35" shape="1083.61,3181.59 1085.85,3182.86 1087.95,3183.13 1089.89,3182.39 1091.69,3180.64">
      <param key="origId" value="1707_-1"/>
    </lane>
  </edge>
  <edge id=":1_9" function="internal">
    <lane id=":1_9_0" index="0" disallow="pedestrian tram rail_urban rail rail_electric rail_fast ship" speed="27.78" length="14.86" width="3.35" shape="1083.61,3181.59 1095.38,3190.66">
      <param key="origId" value="1708_-2"/>
    </lane>
    <lane id=":1_9_1" index="1" disallow="pedestrian tram rail_urban rail rail_electric rail_fast ship" speed="27.78" length="14.86" width="3.35" shape="1081.57,3184.24 1093.34,3193.31">
      <param key="origId" value="1708_-1"/>
    </lane>
  </edge>
  <edge id=":1_11" function="internal">
    <lane id=":1_11_0" index="0" disallow="pedestrian tram rail_urban rail rail_electric rail_fast ship" speed="11.52" length="19.62" width="3.35" shape="1081.57,3184.24 1082.06,3188.64 1079.65,3196.48 1076.73,3202.83">
      <param key="origId" value="1709_-1"/>
    </lane>
  </edge>
  <edge id=":1_12" function="internal">
    <lane id=":1_12_0" index="0" disallow="pedestrian tram rail_urban rail rail_electric rail_fast ship" speed="7.66" length="24.75" width="3.35" shape="1081.57,3184.24 1084.33,3192.52 1083.27,3197.83 1078.39,3200.17 1073.21,3199.79">
      <param key="origId" value="1710_-1"/>
    </lane>
  </edge>
  <edge id=":1_18" function="internal">
    <lane id=":1_18_0" index="0" disallow="pedestrian tram rail_urban rail rail_electric rail_fast ship" speed="11.52" length="10.83" width="3.35" shape="1076.73,3202.83 1075.64,3205.19 1071.31,3212.19">
      <param key="origId" value="1709_-1"/>
    </lane>
  </edge>
  <edge id=":1_19" function="internal">
    <lane id=":1_19_0" index="0" disallow="pedestrian tram rail_urban rail rail_electric rail_fast ship" speed="7.66" length="3.53" width="3.35" shape="1073.21,3199.79 1069.69,3199.53">
      <param key="origId" value="1710_-1"/>
    </lane>
  </edge>
  <edge id=":1_13" function="internal">
    <lane id=":1_13_0" index="0" disallow="pedestrian tram rail_urban rail rail_electric rail_fast ship" speed="6.58" length="9.16" width="3.35" shape="1068.66,3210.16 1069.89,3207.97 1070.13,3205.91 1069.38,3203.98 1067.63,3202.18">
      <param key="origId" value="1711_-1"/>
    </lane>
  </edge>
  <edge id=":1_14" function="internal">
    <lane id=":1_14_0" index="0" disallow="pedestrian tram rail_urban rail rail_electric rail_fast ship" speed="22.22" length="37.44" width="3.35" shape="1068.66,3210.16 1091.69,3180.64">
      <param key="origId" value="1712_-1"/>
    </lane>
  </edge>
  <edge id=":1_15" function="internal">
    <lane id=":1_15_0" index="0" disallow="pedestrian tram rail_urban rail rail_electric rail_fast ship" speed="11.53" length="30.61" width="3.35" shape="1068.66,3210.16 1074.33,3204.19 1081.79,3198.13 1088.85,3193.88 1093.34,3193.31">
      <param key="origId" value="1713_-1"/>
    </lane>
  </edge>
  <edge id=":10_0" function="internal">
    <lane id=":10_0_0" index="0" disallow="pedestrian tram rail_urban rail rail_electric rail_fast ship" speed="6.54" length="9.15" width="3.35" shape="1311.56,2909.04 1309.38,2907.79 1307.33,2907.54 1305.41,2908.29 1303.61,2910.04">
      <param key="origId" value="1391_-1"/>
    </lane>
  </edge>
  <edge id=":10_1" function="internal">
    <lane id=":10_1_0" index="0" disallow="pedestrian tram rail_urban rail rail_electric rail_fast ship" speed="22.22" length="14.72" width="3.35" shape="1311.56,2909.04 1299.92,2900.03">
      <param key="origId" value="1392_-1"/>
    </lane>
  </edge>
  <edge id=":10_2" function="internal">
    <lane id=":10_2_0" index="0" disallow="pedestrian tram rail_urban rail rail_electric rail_fast ship" speed="7.97" length="13.87" width="3.35" shape="1311.56,2909.04 1309.51,2906.41 1308.49,2902.96 1308.59,2899.35 1309.90,2896.29">
      <param key="origId" value="1393_-1"/>
    </lane>
  </edge>
  <edge id=":10_3" function="internal">
    <lane id=":10_3_0" index="0" disallow="pedestrian tram rail_urban rail rail_electric rail_fast ship" speed="6.63" length="9.27" width="3.35" shape="1312.57,2898.32 1311.34,2900.53 1311.11,2902.62 1311.87,2904.57 1313.62,2906.41">
      <param key="origId" value="1394_-1"/>
    </lane>
  </edge>
  <edge id=":10_4" function="internal">
    <lane id=":10_4_0" index="0" disallow="pedestrian tram rail_urban rail rail_electric rail_fast ship" speed="22.22" length="14.75" width="3.35" shape="1312.57,2898.32 1303.61,2910.04">
      <param key="origId" value="1395_-1"/>
    </lane>
  </edge>
  <edge id=":10_5" function="internal">
    <lane id=":10_5_0" index="0" disallow="pedestrian tram rail_urban rail rail_electric rail_fast ship" speed="7.90" length="4.31" width="3.35" shape="1312.57,2898.32 1309.98,2900.38 1309.02,2900.67">
      <param key="origId" value="1396_-1"/>
    </lane>
  </edge>
  <edge id=":10_12" function="internal">
    <lane id=":10_12_0" index="0" disallow="pedestrian tram rail_urban rail rail_electric rail_fast ship" speed="7.90" length="9.48" width="3.35" shape="1309.02,2900.67 1306.55,2901.41 1302.96,2901.33 1299.92,2900.03">
      <param key="origId" value="1396_-1"/>
    </lane>
  </edge>
  <edge id=":10_6" function="internal">
    <lane id=":10_6_0" index="0" disallow="pedestrian tram rail_urban rail rail_electric rail_fast ship" speed="6.55" length="9.15" width="3.35" shape="1301.96,2897.37 1304.14,2898.59 1306.20,2898.82 1308.12,2898.06 1309.90,2896.29">
      <param key="origId" value="1397_-1"/>
    </lane>
  </edge>
  <edge id=":10_7" function="internal">
    <lane id=":10_7_0" index="0" disallow="pedestrian tram rail_urban rail rail_electric rail_fast ship" speed="22.22" length="14.76" width="3.35" shape="1301.96,2897.37 1313.62,2906.41">
      <param key="origId" value="1398_-1"/>
    </lane>
  </edge>
  <edge id=":10_8" function="internal">
    <lane id=":10_8_0" index="0" disallow="pedestrian tram rail_urban rail rail_electric rail_fast ship" speed="7.90" length="13.80" width="3.35" shape="1301.96,2897.37 1304.01,2899.96 1305.02,2903.41 1304.92,2907.00 1303.61,2910.04">
      <param key="origId" value="1399_-1"/>
    </lane>
  </edge>
  <edge id=":10_9" function="internal">
    <lane id=":10_9_0" index="0" disallow="pedestrian tram rail_urban rail rail_electric rail_fast ship" speed="6.56" length="9.17" width="3.35" shape="1300.95,2907.99 1302.19,2905.80 1302.43,2903.74 1301.68,2901.82 1299.92,2900.03">
      <param key="origId" value="1400_-1"/>
    </lane>
  </edge>
  <edge id=":10_10" function="internal">
    <lane id=":10_10_0" index="0" disallow="pedestrian tram rail_urban rail rail_electric rail_fast ship" speed="22.22" length="14.73" width="3.35" shape="1300.95,2907.99 1309.90,2896.29">
      <param key="origId" value="1401_-1"/>
    </lane>
  </edge>
  <edge id=":10_11" function="internal">
    <lane id=":10_11_0" index="0" disallow="pedestrian tram rail_urban rail rail_electric rail_fast ship" speed="7.89" length="4.26" width="3.35" shape="1300.95,2907.99 1303.56,2905.95 1304.48,2905.69">
      <param key="origId" value="1402_-1"/>
    </lane>
  </edge>
  <edge id=":10_13" function="internal">
    <lane id=":10_13_0" index="0" disallow="pedestrian tram rail_urban rail rail_electric rail_fast ship" speed="7.89" length="9.54" width="3.35" shape="1304.48,2905.69 1307.01,2904.95 1310.60,2905.07 1313.62,2906.41">
      <param key="origId" value="1402_-1"/>
    </lane>
  </edge>
  <edge id=":11_0" function="internal">
    <lane id=":11_0_0" index="0" disallow="pedestrian tram rail_urban rail rail_electric rail_fast ship" speed="6.63" length="9.43" width="3.35" shape="1504.25,2655.94 1501.95,2654.61 1499.81,2654.31 1497.84,2655.03 1496.04,2656.79">
      <param key="origId" value="1654_-1"/>
    </lane>
  </edge>
  <edge id=":11_1" function="internal">
    <lane id=":11_1_0" index="0" disallow="pedestrian tram rail_urban rail rail_electric rail_fast ship" speed="27.78" length="15.06" width="3.35" shape="1504.25,2655.94 1492.27,2646.81">
      <param key="origId" value="1655_-1"/>
    </lane>
  </edge>
  <edge id=":11_2" function="internal">
    <lane id=":11_2_0" index="0" disallow="pedestrian tram rail_urban rail rail_electric rail_fast ship" speed="9.26" length="19.27" width="3.35" shape="1504.25,2655.94 1502.61,2652.63 1502.76,2647.69 1504.27,2642.36 1506.72,2637.90">
      <param key="origId" value="1656_-1"/>
    </lane>
  </edge>
  <edge id=":11_3" function="internal">
    <lane id=":11_3_0" index="0" disallow="pedestrian tram rail_urban rail rail_electric rail_fast ship" speed="5.73" length="14.74" width="3.35" shape="1504.25,2655.94 1502.78,2651.64 1503.32,2648.87 1505.85,2647.64 1510.39,2647.94">
      <param key="origId" value="1657_-1"/>
    </lane>
  </edge>
  <edge id=":11_4" function="internal">
    <lane id=":11_4_0" index="0" disallow="pedestrian tram rail_urban rail rail_electric rail_fast ship" speed="6.57" length="9.19" width="3.35" shape="1509.38,2639.95 1508.13,2642.15 1507.89,2644.21 1508.64,2646.14 1510.39,2647.94">
      <param key="origId" value="1658_-1"/>
    </lane>
  </edge>
  <edge id=":11_5" function="internal">
    <lane id=":11_5_0" index="0" disallow="pedestrian tram rail_urban rail rail_electric rail_fast ship" speed="22.22" length="21.48" width="3.35" shape="1509.38,2639.95 1496.04,2656.79">
      <param key="origId" value="1659_-1"/>
    </lane>
  </edge>
  <edge id=":11_6" function="internal">
    <lane id=":11_6_0" index="0" disallow="pedestrian tram rail_urban rail rail_electric rail_fast ship" speed="9.35" length="7.68" width="3.35" shape="1509.38,2639.95 1505.65,2643.47 1503.44,2644.75">
      <param key="origId" value="1660_-1"/>
    </lane>
  </edge>
  <edge id=":11_14" function="internal">
    <lane id=":11_14_0" index="0" disallow="pedestrian tram rail_urban rail rail_electric rail_fast ship" speed="9.35" length="11.84" width="3.35" shape="1503.44,2644.75 1500.82,2646.26 1496.00,2647.61 1492.27,2646.81">
      <param key="origId" value="1660_-1"/>
    </lane>
  </edge>
  <edge id=":11_7" function="internal">
    <lane id=":11_7_0" index="0" disallow="pedestrian tram rail_urban rail rail_electric rail_fast ship" speed="6.65" length="9.54" width="3.35" shape="1498.40,2638.58 1500.74,2639.98 1502.90,2640.33 1504.90,2639.64 1506.72,2637.90">
      <param key="origId" value="1661_-1"/>
    </lane>
  </edge>
  <edge id=":11_8" function="internal">
    <lane id=":11_8_0" index="0" disallow="pedestrian tram rail_urban rail rail_electric rail_fast ship" speed="27.78" length="15.20" width="3.35" shape="1498.40,2638.58 1510.39,2647.94">
      <param key="origId" value="1662_-1"/>
    </lane>
  </edge>
  <edge id=":11_9" function="internal">
    <lane id=":11_9_0" index="0" disallow="pedestrian tram rail_urban rail rail_electric rail_fast ship" speed="9.35" length="19.41" width="3.35" shape="1498.40,2638.58 1500.06,2641.94 1499.95,2646.92 1498.47,2652.28 1496.04,2656.79">
      <param key="origId" value="1663_-1"/>
    </lane>
  </edge>
  <edge id=":11_10" function="internal">
    <lane id=":11_10_0" index="0" disallow="pedestrian tram rail_urban rail rail_electric rail_fast ship" speed="5.79" length="14.99" width="3.35" shape="1498.40,2638.58 1499.96,2642.94 1499.45,2645.76 1496.89,2647.05 1492.27,2646.81">
      <param key="origId" value="1664_-1"/>
    </lane>
  </edge>
  <edge id=":11_11" function="internal">
    <lane id=":11_11_0" index="0" disallow="pedestrian tram rail_urban rail rail_electric rail_fast ship" speed="6.55" length="9.16" width="3.35" shape="1493.37,2654.76 1494.59,2652.56 1494.82,2650.51 1494.05,2648.59 1492.27,2646.81">
      <param key="origId" value="1665_-1"/>
    </lane>
  </edge>
  <edge id=":11_12" function="internal">
    <lane id=":11_12_0" index="0" disallow="pedestrian tram rail_urban rail rail_electric rail_fast ship" speed="22.22" length="21.50" width="3.35" shape="1493.37,2654.76 1506.72,2637.90">
      <param key="origId" value="1666_-1"/>
    </lane>
  </edge>
  <edge id=":11_13" function="internal">
    <lane id=":11_13_0" index="0" disallow="pedestrian tram rail_urban rail rail_electric rail_fast ship" speed="9.28" length="7.75" width="3.35" shape="1493.37,2654.76 1497.06,2651.24 1499.35,2649.91">
      <param key="origId" value="1667_-1"/>
    </lane>
  </edge>
  <edge id=":11_15" function="internal">
    <lane id=":11_15_0" index="0" disallow="pedestrian tram rail_urban rail rail_electric rail_fast ship" speed="9.28" length="11.71" width="3.35" shape="1499.35,2649.91 1501.87,2648.45 1506.67,2647.11 1510.39,2647.94">
      <param key="origId" value="1667_-1"/>
    </lane>
  </edge>
  <edge id=":12_0" function="internal">
    <lane id=":12_0_0" index="0" disallow="pedestrian tram rail_urban rail rail_electric rail_fast ship" speed="6.57" length="9.17" width="3.35" shape="1668.47,2442.56 1666.28,2441.33 1664.22,2441.09 1662.30,2441.85 1660.50,2443.61">
      <param key="origId" value="1403_-1"/>
    </lane>
  </edge>
  <edge id=":12_1" function="internal">
    <lane id=":12_1_0" index="0" disallow="pedestrian tram rail_urban rail rail_electric rail_fast ship" speed="22.22" length="14.71" width="3.35" shape="1668.47,2442.56 1656.81,2433.60">
      <param key="origId" value="1404_-1"/>
    </lane>
  </edge>
  <edge id=":12_2" function="internal">
    <lane id=":12_2_0" index="0" disallow="pedestrian tram rail_urban rail rail_electric rail_fast ship" speed="7.40" length="11.99" width="3.35" shape="1668.47,2442.56 1665.55,2439.87 1663.97,2437.31 1663.71,2434.88 1664.79,2432.56">
      <param key="origId" value="1405_-1"/>
    </lane>
  </edge>
  <edge id=":12_3" function="internal">
    <lane id=":12_3_0" index="0" disallow="pedestrian tram rail_urban rail rail_electric rail_fast ship" speed="22.22" length="11.36" width="3.35" shape="1667.44,2434.61 1660.50,2443.61">
      <param key="origId" value="1406_-1"/>
    </lane>
  </edge>
  <edge id=":12_4" function="internal">
    <lane id=":12_4_0" index="0" disallow="pedestrian tram rail_urban rail rail_electric rail_fast ship" speed="7.42" length="2.72" width="3.35" shape="1667.44,2434.61 1665.47,2436.23 1665.30,2436.26">
      <param key="origId" value="1407_-1"/>
    </lane>
  </edge>
  <edge id=":12_7" function="internal">
    <lane id=":12_7_0" index="0" disallow="pedestrian tram rail_urban rail rail_electric rail_fast ship" speed="7.42" length="9.27" width="3.35" shape="1665.30,2436.26 1663.04,2436.61 1660.15,2435.73 1656.81,2433.60">
      <param key="origId" value="1407_-1"/>
    </lane>
  </edge>
  <edge id=":12_5" function="internal">
    <lane id=":12_5_0" index="0" disallow="pedestrian tram rail_urban rail rail_electric rail_fast ship" speed="6.56" length="9.15" width="3.35" shape="1657.84,2441.56 1659.08,2439.38 1659.31,2437.32 1658.56,2435.40 1656.81,2433.60">
      <param key="origId" value="1408_-1"/>
    </lane>
  </edge>
  <edge id=":12_6" function="internal">
    <lane id=":12_6_0" index="0" disallow="pedestrian tram rail_urban rail rail_electric rail_fast ship" speed="22.22" length="11.37" width="3.35" shape="1657.84,2441.56 1664.79,2432.56">
      <param key="origId" value="1409_-1"/>
    </lane>
  </edge>
  <edge id=":13_0" function="internal">
    <lane id=":13_0_0" index="0" disallow="pedestrian tram rail_urban rail rail_electric rail_fast ship" speed="6.57" length="9.17" width="3.35" shape="1691.99,2402.82 1690.75,2405.01 1690.51,2407.07 1691.27,2409.00 1693.01,2410.80">
      <param key="origId" value="1260_-1"/>
    </lane>
  </edge>
  <edge id=":13_1" function="internal">
    <lane id=":13_1_0" index="0" disallow="pedestrian tram rail_urban rail rail_electric rail_fast ship" speed="22.22" length="11.36" width="3.35" shape="1691.99,2402.82 1685.05,2411.82">
      <param key="origId" value="1261_-1"/>
    </lane>
  </edge>
  <edge id=":13_2" function="internal">
    <lane id=":13_2_0" index="0" disallow="pedestrian tram rail_urban rail rail_electric rail_fast ship" speed="6.56" length="9.15" width="3.35" shape="1681.38,2401.81 1683.56,2403.05 1685.62,2403.29 1687.54,2402.53 1689.33,2400.78">
      <param key="origId" value="1262_-1"/>
    </lane>
  </edge>
  <edge id=":13_3" function="internal">
    <lane id=":13_3_0" index="0" disallow="pedestrian tram rail_urban rail rail_electric rail_fast ship" speed="22.22" length="14.70" width="3.35" shape="1681.38,2401.81 1693.01,2410.80">
      <param key="origId" value="1263_-1"/>
    </lane>
  </edge>
  <edge id=":13_4" function="internal">
    <lane id=":13_4_0" index="0" disallow="pedestrian tram rail_urban rail rail_electric rail_fast ship" speed="7.41" length="11.98" width="3.35" shape="1681.38,2401.81 1684.29,2404.51 1685.87,2407.07 1686.12,2409.51 1685.05,2411.82">
      <param key="origId" value="1264_-1"/>
    </lane>
  </edge>
  <edge id=":13_5" function="internal">
    <lane id=":13_5_0" index="0" disallow="pedestrian tram rail_urban rail rail_electric rail_fast ship" speed="22.22" length="11.35" width="3.35" shape="1682.40,2409.77 1689.33,2400.78">
      <param key="origId" value="1265_-1"/>
    </lane>
  </edge>
  <edge id=":13_6" function="internal">
    <lane id=":13_6_0" index="0" disallow="pedestrian tram rail_urban rail rail_electric rail_fast ship" speed="7.41" length="2.71" width="3.35" shape="1682.40,2409.77 1684.37,2408.15 1684.53,2408.13">
      <param key="origId" value="1266_-1"/>
    </lane>
  </edge>
  <edge id=":13_7" function="internal">
    <lane id=":13_7_0" index="0" disallow="pedestrian tram rail_urban rail rail_electric rail_fast ship" speed="7.41" length="9.27" width="3.35" shape="1684.53,2408.13 1686.79,2407.78 1689.67,2408.67 1693.01,2410.80">
      <param key="origId" value="1266_-1"/>
    </lane>
  </edge>
  <edge id=":14_0" function="internal">
    <lane id=":14_0_0" index="0" disallow="pedestrian tram rail_urban rail rail_electric rail_fast ship" speed="6.58" length="9.21" width="3.35" shape="1849.18,2207.70 1846.99,2206.47 1844.92,2206.24 1842.99,2207.01 1841.17,2208.79">
      <param key="origId" value="1410_-1"/>
    </lane>
  </edge>
  <edge id=":14_1" function="internal">
    <lane id=":14_1_0" index="0" disallow="pedestrian tram rail_urban rail rail_electric rail_fast ship" speed="22.22" length="14.74" width="3.35" shape="1849.18,2207.70 1837.41,2198.82">
      <param key="origId" value="1411_-1"/>
    </lane>
  </edge>
  <edge id=":14_2" function="internal">
    <lane id=":14_2_0" index="0" disallow="pedestrian tram rail_urban rail rail_electric rail_fast ship" speed="7.90" length="13.79" width="3.35" shape="1849.18,2207.70 1847.13,2205.10 1846.12,2201.66 1846.22,2198.08 1847.54,2195.04">
      <param key="origId" value="1412_-1"/>
    </lane>
  </edge>
  <edge id=":14_3" function="internal">
    <lane id=":14_3_0" index="0" disallow="pedestrian tram rail_urban rail rail_electric rail_fast ship" speed="6.56" length="9.15" width="3.35" shape="1850.19,2197.09 1848.95,2199.27 1848.71,2201.33 1849.47,2203.25 1851.22,2205.04">
      <param key="origId" value="1413_-1"/>
    </lane>
  </edge>
  <edge id=":14_4" function="internal">
    <lane id=":14_4_0" index="0" disallow="pedestrian tram rail_urban rail rail_electric rail_fast ship" speed="22.22" length="14.77" width="3.35" shape="1850.19,2197.09 1841.17,2208.79">
      <param key="origId" value="1414_-1"/>
    </lane>
  </edge>
  <edge id=":14_5" function="internal">
    <lane id=":14_5_0" index="0" disallow="pedestrian tram rail_urban rail rail_electric rail_fast ship" speed="8.00" length="4.28" width="3.35" shape="1850.19,2197.09 1847.57,2199.16 1846.67,2199.43">
      <param key="origId" value="1415_-1"/>
    </lane>
  </edge>
  <edge id=":14_12" function="internal">
    <lane id=":14_12_0" index="0" disallow="pedestrian tram rail_urban rail rail_electric rail_fast ship" speed="8.00" length="9.63" width="3.35" shape="1846.67,2199.43 1844.11,2200.19 1840.50,2200.11 1837.41,2198.82">
      <param key="origId" value="1415_-1"/>
    </lane>
  </edge>
  <edge id=":14_6" function="internal">
    <lane id=":14_6_0" index="0" disallow="pedestrian tram rail_urban rail rail_electric rail_fast ship" speed="6.66" length="9.32" width="3.35" shape="1839.41,2196.13 1841.65,2197.35 1843.76,2197.58 1845.72,2196.81 1847.54,2195.04">
      <param key="origId" value="1416_-1"/>
    </lane>
  </edge>
  <edge id=":14_7" function="internal">
    <lane id=":14_7_0" index="0" disallow="pedestrian tram rail_urban rail rail_electric rail_fast ship" speed="22.22" length="14.80" width="3.35" shape="1839.41,2196.13 1851.22,2205.04">
      <param key="origId" value="1417_-1"/>
    </lane>
  </edge>
  <edge id=":14_8" function="internal">
    <lane id=":14_8_0" index="0" disallow="pedestrian tram rail_urban rail rail_electric rail_fast ship" speed="7.87" length="13.82" width="3.35" shape="1839.41,2196.13 1841.49,2198.70 1842.55,2202.14 1842.47,2205.74 1841.17,2208.79">
      <param key="origId" value="1418_-1"/>
    </lane>
  </edge>
  <edge id=":14_9" function="internal">
    <lane id=":14_9_0" index="0" disallow="pedestrian tram rail_urban rail rail_electric rail_fast ship" speed="6.52" length="9.16" width="3.35" shape="1838.52,2206.74 1839.75,2204.55 1839.98,2202.50 1839.20,2200.59 1837.41,2198.82">
      <param key="origId" value="1419_-1"/>
    </lane>
  </edge>
  <edge id=":14_10" function="internal">
    <lane id=":14_10_0" index="0" disallow="pedestrian tram rail_urban rail rail_electric rail_fast ship" speed="22.22" length="14.78" width="3.35" shape="1838.52,2206.74 1847.54,2195.04">
      <param key="origId" value="1420_-1"/>
    </lane>
  </edge>
  <edge id=":14_11" function="internal">
    <lane id=":14_11_0" index="0" disallow="pedestrian tram rail_urban rail rail_electric rail_fast ship" speed="7.92" length="4.32" width="3.35" shape="1838.52,2206.74 1841.13,2204.68 1842.08,2204.40">
      <param key="origId" value="1421_-1"/>
    </lane>
  </edge>
  <edge id=":14_13" function="internal">
    <lane id=":14_13_0" index="0" disallow="pedestrian tram rail_urban rail rail_electric rail_fast ship" speed="7.92" length="9.52" width="3.35" shape="1842.08,2204.40 1844.58,2203.65 1848.17,2203.74 1851.22,2205.04">
      <param key="origId" value="1421_-1"/>
    </lane>
  </edge>
  <edge id=":15_0" function="internal">