<?xml version='1.0' encoding='utf-8'?>
<routes>
  <vType id="demo_10_official_passenger" vClass="passenger" emissionClass="HBEFA3/PC_G_EU4" accel="2.6" decel="4.5" sigma="0.5" length="5" width="1.8" minGap="2.5" maxSpeed="13.9" />
  <flow id="demo_10_off_peak_00_east_left" type="demo_10_official_passenger" begin="0" end="900" number="51" departLane="best" departSpeed="max">
    <route edges="-50726 -57487" />
  </flow>
  <flow id="demo_10_off_peak_00_east_through" type="demo_10_official_passenger" begin="0" end="900" number="25" departLane="best" departSpeed="max">
    <route edges="-50726 -50725" />
  </flow>
  <flow id="demo_10_off_peak_00_west_through" type="demo_10_official_passenger" begin="0" end="900" number="36" departLane="best" departSpeed="max">
    <route edges="-57445 -57446" />
  </flow>
  <flow id="demo_10_off_peak_00_west_right" type="demo_10_official_passenger" begin="0" end="900" number="41" departLane="best" departSpeed="max">
    <route edges="-57445 -57487" />
  </flow>
  <flow id="demo_10_off_peak_00_south_left" type="demo_10_official_passenger" begin="0" end="900" number="34" departLane="best" departSpeed="max">
    <route edges="-50758 -50725" />
  </flow>
  <flow id="demo_10_off_peak_00_south_right" type="demo_10_official_passenger" begin="0" end="900" number="42" departLane="best" departSpeed="max">
    <route edges="-50758 -57446" />
  </flow>
  <flow id="demo_10_off_peak_01_east_left" type="demo_10_official_passenger" begin="900" end="1800" number="54" departLane="best" departSpeed="max">
    <route edges="-50726 -57487" />
  </flow>
  <flow id="demo_10_off_peak_01_east_through" type="demo_10_official_passenger" begin="900" end="1800" number="25" departLane="best" departSpeed="max">
    <route edges="-50726 -50725" />
  </flow>
  <flow id="demo_10_off_peak_01_west_through" type="demo_10_official_passenger" begin="900" end="1800" number="40" departLane="best" departSpeed="max">
    <route edges="-57445 -57446" />
  </flow>
  <flow id="demo_10_off_peak_01_west_right" type="demo_10_official_passenger" begin="900" end="1800" number="45" departLane="best" departSpeed="max">
    <route edges="-57445 -57487" />
  </flow>
  <flow id="demo_10_off_peak_01_south_left" type="demo_10_official_passenger" begin="900" end="1800" number="34" departLane="best" departSpeed="max">
    <route edges="-50758 -50725" />
  </flow>
  <flow id="demo_10_off_peak_01_south_right" type="demo_10_official_passenger" begin="900" end="1800" number="46" departLane="best" departSpeed="max">
    <route edges="-50758 -57446" />
  </flow>
  <flow id="demo_10_off_peak_02_east_left" type="demo_10_official_passenger" begin="1800" end="2700" number="55" departLane="best" departSpeed="max">
    <route edges="-50726 -57487" />
  </flow>
  <flow id="demo_10_off_peak_02_east_through" type="demo_10_official_passenger" begin="1800" end="2700" number="25" departLane="best" departSpeed="max">
    <route edges="-50726 -50725" />
  </flow>
  <flow id="demo_10_off_peak_02_west_through" type="demo_10_official_passenger" begin="1800" end="2700" number="38" departLane="best" departSpeed="max">
    <route edges="-57445 -57446" />
  </flow>
  <flow id="demo_10_off_peak_02_west_right" type="demo_10_official_passenger" begin="1800" end="2700" number="44" departLane="best" departSpeed="max">
    <route edges="-57445 -57487" />
  </flow>
  <flow id="demo_10_off_peak_02_south_left" type="demo_10_official_passenger" begin="1800" end="2700" number="30" departLane="best" departSpeed="max">
    <route edges="-50758 -50725" />
  </flow>
  <flow id="demo_10_off_peak_02_south_right" type="demo_10_official_passenger" begin="1800" end="2700" number="45" departLane="best" departSpeed="max">
    <route edges="-50758 -57446" />
  </flow>
  <flow id="demo_10_off_peak_03_east_left" type="demo_10_official_passenger" begin="2700" end="3600" number="53" departLane="best" departSpeed="max">
    <route edges="-50726 -57487" />
  </flow>
  <flow id="demo_10_off_peak_03_east_through" type="demo_10_official_passenger" begin="2700" end="3600" number="26" departLane="best" departSpeed="max">
    <route edges="-50726 -50725" />
  </flow>
  <flow id="demo_10_off_peak_03_west_through" type="demo_10_official_passenger" begin="2700" end="3600" number="36" departLane="best" departSpeed="max">
    <route edges="-57445 -57446" />
  </flow>
  <flow id="demo_10_off_peak_03_west_right" type="demo_10_official_passenger" begin="2700" end="3600" number="45" departLane="best" departSpeed="max">
    <route edges="-57445 -57487" />
  </flow>
  <flow id="demo_10_off_peak_03_south_left" type="demo_10_official_passenger" begin="2700" end="3600" number="32" departLane="best" departSpeed="max">
    <route edges="-50758 -50725" />
  </flow>
  <flow id="demo_10_off_peak_03_south_right" type="demo_10_official_passenger" begin="2700" end="3600" number="42" departLane="best" departSpeed="max">
    <route edges="-50758 -57446" />
  </flow>
  <flow id="demo_10_off_peak_04_east_left" type="demo_10_official_passenger" begin="3600" end="4500" number="53" departLane="best" departSpeed="max">
    <route edges="-50726 -57487" />
  </flow>
  <flow id="demo_10_off_peak_04_east_through" type="demo_10_official_passenger" begin="3600" end="4500" number="25" departLane="best" departSpeed="max">
    <route edges="-50726 -50725" />
  </flow>
  <flow id="demo_10_off_peak_04_west_through" type="demo_10_official_passenger" begin="3600" end="4500" number="40" departLane="best" departSpeed="max">
    <route edges="-57445 -57446" />
  </flow>
  <flow id="demo_10_off_peak_04_west_right" type="demo_10_official_passenger" begin="3600" end="4500" number="43" departLane="best" departSpeed="max">
    <route edges="-57445 -57487" />
  </flow>
  <flow id="demo_10_off_peak_04_south_left" type="demo_10_official_passenger" begin="3600" end="4500" number="30" departLane="best" departSpeed="max">
    <route edges="-50758 -50725" />
  </flow>
  <flow id="demo_10_off_peak_04_south_right" type="demo_10_official_passenger" begin="3600" end="4500" number="45" departLane="best" departSpeed="max">
    <route edges="-50758 -57446" />
  </flow>
  <flow id="demo_10_off_peak_05_east_left" type="demo_10_official_passenger" begin="4500" end="5400" number="54" departLane="best" departSpeed="max">
    <route edges="-50726 -57487" />
  </flow>
  <flow id="demo_10_off_peak_05_east_through" type="demo_10_official_passenger" begin="4500" end="5400" number="25" departLane="best" departSpeed="max">
    <route edges="-50726 -50725" />
  </flow>
  <flow id="demo_10_off_peak_05_west_through" type="demo_10_official_passenger" begin="4500" end="5400" number="36" departLane="best" departSpeed="max">
    <route edges="-57445 -57446" />
  </flow>
  <flow id="demo_10_off_peak_05_west_right" type="demo_10_official_passenger" begin="4500" end="5400" number="46" departLane="best" departSpeed="max">
    <route edges="-57445 -57487" />
  </flow>
  <flow id="demo_10_off_peak_05_south_left" type="demo_10_official_passenger" begin="4500" end="5400" number="32" departLane="best" departSpeed="max">
    <route edges="-50758 -50725" />
  </flow>
  <flow id="demo_10_off_peak_05_south_right" type="demo_10_official_passenger" begin="4500" end="5400" number="46" departLane="best" departSpeed="max">
    <route edges="-50758 -57446" />
  </flow>
  <flow id="demo_10_off_peak_06_east_left" type="demo_10_official_passenger" begin="5400" end="6300" number="51" departLane="best" departSpeed="max">
    <route edges="-50726 -57487" />
  </flow>
  <flow id="demo_10_off_peak_06_east_through" type="demo_10_official_passenger" begin="5400" end="6300" number="24" departLane="best" departSpeed="max">
    <route edges="-50726 -50725" />
  </flow>
  <flow id="demo_10_off_peak_06_west_through" type="demo_10_official_passenger" begin="5400" end="6300" number="35" departLane="best" departSpeed="max">
    <route edges="-57445 -57446" />
  </flow>
  <flow id="demo_10_off_peak_06_west_right" type="demo_10_official_passenger" begin="5400" end="6300" number="42" departLane="best" departSpeed="max">
    <route edges="-57445 -57487" />
  </flow>
  <flow id="demo_10_off_peak_06_south_left" type="demo_10_official_passenger" begin="5400" end="6300" number="31" departLane="best" departSpeed="max">
    <route edges="-50758 -50725" />
  </flow>
  <flow id="demo_10_off_peak_06_south_right" type="demo_10_official_passenger" begin="5400" end="6300" number="46" departLane="best" departSpeed="max">
    <route edges="-50758 -57446" />
  </flow>
  <flow id="demo_10_off_peak_07_east_left" type="demo_10_official_passenger" begin="6300" end="7200" number="52" departLane="best" departSpeed="max">
    <route edges="-50726 -57487" />
  </flow>
  <flow id="demo_10_off_peak_07_east_through" type="demo_10_official_passenger" begin="6300" end="7200" number="24" departLane="best" departSpeed="max">
    <route edges="-50726 -50725" />
  </flow>
  <flow id="demo_10_off_peak_07_west_through" type="demo_10_official_passenger" begin="6300" end="7200" number="40" departLane="best" departSpeed="max">
    <route edges="-57445 -57446" />
  </flow>
  <flow id="demo_10_off_peak_07_west_right" type="demo_10_official_passenger" begin="6300" end="7200" number="45" departLane="best" departSpeed="max">
    <route edges="-57445 -57487" />
  </flow>
  <flow id="demo_10_off_peak_07_south_left" type="demo_10_official_passenger" begin="6300" end="7200" number="33" departLane="best" departSpeed="max">
    <route edges="-50758 -50725" />
  </flow>
  <flow id="demo_10_off_peak_07_south_right" type="demo_10_official_passenger" begin="6300" end="7200" number="42" departLane="best" departSpeed="max">
    <route edges="-50758 -57446" />
  </flow>
</routes>