<?xml version='1.0' encoding='utf-8'?>
<routes>
  <vType id="demo_6_official_passenger" vClass="passenger" emissionClass="HBEFA3/PC_G_EU4" accel="2.6" decel="4.5" sigma="0.5" length="5" width="1.8" minGap="2.5" maxSpeed="13.9" />
  <flow id="demo_6_morning_peak_00_east_left" type="demo_6_official_passenger" begin="0" end="900" number="45" departLane="best" departSpeed="max">
    <route edges="-56623 -50818" />
  </flow>
  <flow id="demo_6_morning_peak_00_east_through" type="demo_6_official_passenger" begin="0" end="900" number="102" departLane="best" departSpeed="max">
    <route edges="-56623 -56614" />
  </flow>
  <flow id="demo_6_morning_peak_00_east_right" type="demo_6_official_passenger" begin="0" end="900" number="47" departLane="best" departSpeed="max">
    <route edges="-56623 -57585" />
  </flow>
  <flow id="demo_6_morning_peak_00_west_left" type="demo_6_official_passenger" begin="0" end="900" number="12" departLane="best" departSpeed="max">
    <route edges="-50334 -57585" />
  </flow>
  <flow id="demo_6_morning_peak_00_west_through" type="demo_6_official_passenger" begin="0" end="900" number="65" departLane="best" departSpeed="max">
    <route edges="-50334 -50342" />
  </flow>
  <flow id="demo_6_morning_peak_00_west_right" type="demo_6_official_passenger" begin="0" end="900" number="38" departLane="best" departSpeed="max">
    <route edges="-50334 -50818" />
  </flow>
  <flow id="demo_6_morning_peak_00_south_left" type="demo_6_official_passenger" begin="0" end="900" number="44" departLane="best" departSpeed="max">
    <route edges="-57584 -56614" />
  </flow>
  <flow id="demo_6_morning_peak_00_south_through" type="demo_6_official_passenger" begin="0" end="900" number="43" departLane="best" departSpeed="max">
    <route edges="-57584 -57585" />
  </flow>
  <flow id="demo_6_morning_peak_00_south_right" type="demo_6_official_passenger" begin="0" end="900" number="23" departLane="best" departSpeed="max">
    <route edges="-57584 -50342" />
  </flow>
  <flow id="demo_6_morning_peak_00_north_left" type="demo_6_official_passenger" begin="0" end="900" number="29" departLane="best" departSpeed="max">
    <route edges="-50819 -50342" />
  </flow>
  <flow id="demo_6_morning_peak_00_north_through" type="demo_6_official_passenger" begin="0" end="900" number="76" departLane="best" departSpeed="max">
    <route edges="-50819 -50818" />
  </flow>
  <flow id="demo_6_morning_peak_00_north_right" type="demo_6_official_passenger" begin="0" end="900" number="17" departLane="best" departSpeed="max">
    <route edges="-50819 -56614" />
  </flow>
  <flow id="demo_6_morning_peak_01_east_left" type="demo_6_official_passenger" begin="900" end="1800" number="39" departLane="best" departSpeed="max">
    <route edges="-56623 -50818" />
  </flow>
  <flow id="demo_6_morning_peak_01_east_through" type="demo_6_official_passenger" begin="900" end="1800" number="82" departLane="best" departSpeed="max">
    <route edges="-56623 -56614" />
  </flow>
  <flow id="demo_6_morning_peak_01_east_right" type="demo_6_official_passenger" begin="900" end="1800" number="42" departLane="best" departSpeed="max">
    <route edges="-56623 -57585" />
  </flow>
  <flow id="demo_6_morning_peak_01_west_left" type="demo_6_official_passenger" begin="900" end="1800" number="10" departLane="best" departSpeed="max">
    <route edges="-50334 -57585" />
  </flow>
  <flow id="demo_6_morning_peak_01_west_through" type="demo_6_official_passenger" begin="900" end="1800" number="98" departLane="best" departSpeed="max">
    <route edges="-50334 -50342" />
  </flow>
  <flow id="demo_6_morning_peak_01_west_right" type="demo_6_official_passenger" begin="900" end="1800" number="29" departLane="best" departSpeed="max">
    <route edges="-50334 -50818" />
  </flow>
  <flow id="demo_6_morning_peak_01_south_left" type="demo_6_official_passenger" begin="900" end="1800" number="39" departLane="best" departSpeed="max">
    <route edges="-57584 -56614" />
  </flow>
  <flow id="demo_6_morning_peak_01_south_through" type="demo_6_official_passenger" begin="900" end="1800" number="48" departLane="best" departSpeed="max">
    <route edges="-57584 -57585" />
  </flow>
  <flow id="demo_6_morning_peak_01_south_right" type="demo_6_official_passenger" begin="900" end="1800" number="36" departLane="best" departSpeed="max">
    <route edges="-57584 -50342" />
  </flow>
  <flow id="demo_6_morning_peak_01_north_left" type="demo_6_official_passenger" begin="900" end="1800" number="35" departLane="best" departSpeed="max">
    <route edges="-50819 -50342" />
  </flow>
  <flow id="demo_6_morning_peak_01_north_through" type="demo_6_official_passenger" begin="900" end="1800" number="92" departLane="best" departSpeed="max">
    <route edges="-50819 -50818" />
  </flow>
  <flow id="demo_6_morning_peak_01_north_right" type="demo_6_official_passenger" begin="900" end="1800" number="13" departLane="best" departSpeed="max">
    <route edges="-50819 -56614" />
  </flow>
  <flow id="demo_6_morning_peak_02_east_left" type="demo_6_official_passenger" begin="1800" end="2700" number="48" departLane="best" departSpeed="max">
    <route edges="-56623 -50818" />
  </flow>
  <flow id="demo_6_morning_peak_02_east_through" type="demo_6_official_passenger" begin="1800" end="2700" number="105" departLane="best" departSpeed="max">
    <route edges="-56623 -56614" />
  </flow>
  <flow id="demo_6_morning_peak_02_east_right" type="demo_6_official_passenger" begin="1800" end="2700" number="51" departLane="best" departSpeed="max">
    <route edges="-56623 -57585" />
  </flow>
  <flow id="demo_6_morning_peak_02_west_left" type="demo_6_official_passenger" begin="1800" end="2700" number="11" departLane="best" departSpeed="max">
    <route edges="-50334 -57585" />
  </flow>
  <flow id="demo_6_morning_peak_02_west_through" type="demo_6_official_passenger" begin="1800" end="2700" number="73" departLane="best" departSpeed="max">
    <route edges="-50334 -50342" />
  </flow>
  <flow id="demo_6_morning_peak_02_west_right" type="demo_6_official_passenger" begin="1800" end="2700" number="24" departLane="best" departSpeed="max">
    <route edges="-50334 -50818" />
  </flow>
  <flow id="demo_6_morning_peak_02_south_left" type="demo_6_official_passenger" begin="1800" end="2700" number="47" departLane="best" departSpeed="max">
    <route edges="-57584 -56614" />
  </flow>
  <flow id="demo_6_morning_peak_02_south_through" type="demo_6_official_passenger" begin="1800" end="2700" number="76" departLane="best" departSpeed="max">
    <route edges="-57584 -57585" />
  </flow>
  <flow id="demo_6_morning_peak_02_south_right" type="demo_6_official_passenger" begin="1800" end="2700" number="21" departLane="best" departSpeed="max">
    <route edges="-57584 -50342" />
  </flow>
  <flow id="demo_6_morning_peak_02_north_left" type="demo_6_official_passenger" begin="1800" end="2700" number="31" departLane="best" departSpeed="max">
    <route edges="-50819 -50342" />
  </flow>
  <flow id="demo_6_morning_peak_02_north_through" type="demo_6_official_passenger" begin="1800" end="2700" number="88" departLane="best" departSpeed="max">
    <route edges="-50819 -50818" />
  </flow>
  <flow id="demo_6_morning_peak_02_north_right" type="demo_6_official_passenger" begin="1800" end="2700" number="15" departLane="best" departSpeed="max">
    <route edges="-50819 -56614" />
  </flow>
  <flow id="demo_6_morning_peak_03_east_left" type="demo_6_official_passenger" begin="2700" end="3600" number="37" departLane="best" departSpeed="max">
    <route edges="-56623 -50818" />
  </flow>
  <flow id="demo_6_morning_peak_03_east_through" type="demo_6_official_passenger" begin="2700" end="3600" number="118" departLane="best" departSpeed="max">
    <route edges="-56623 -56614" />
  </flow>
  <flow id="demo_6_morning_peak_03_east_right" type="demo_6_official_passenger" begin="2700" end="3600" number="68" departLane="best" departSpeed="max">
    <route edges="-56623 -57585" />
  </flow>
  <flow id="demo_6_morning_peak_03_west_left" type="demo_6_official_passenger" begin="2700" end="3600" number="9" departLane="best" departSpeed="max">
    <route edges="-50334 -57585" />
  </flow>
  <flow id="demo_6_morning_peak_03_west_through" type="demo_6_official_passenger" begin="2700" end="3600" number="52" departLane="best" departSpeed="max">
    <route edges="-50334 -50342" />
  </flow>
  <flow id="demo_6_morning_peak_03_west_right" type="demo_6_official_passenger" begin="2700" end="3600" number="31" departLane="best" departSpeed="max">
    <route edges="-50334 -50818" />
  </flow>
  <flow id="demo_6_morning_peak_03_south_left" type="demo_6_official_passenger" begin="2700" end="3600" number="36" departLane="best" departSpeed="max">
    <route edges="-57584 -56614" />
  </flow>
  <flow id="demo_6_morning_peak_03_south_through" type="demo_6_official_passenger" begin="2700" end="3600" number="52" departLane="best" departSpeed="max">
    <route edges="-57584 -57585" />
  </flow>
  <flow id="demo_6_morning_peak_03_south_right" type="demo_6_official_passenger" begin="2700" end="3600" number="28" departLane="best" departSpeed="max">
    <route edges="-57584 -50342" />
  </flow>
  <flow id="demo_6_morning_peak_03_north_left" type="demo_6_official_passenger" begin="2700" end="3600" number="32" departLane="best" departSpeed="max">
    <route edges="-50819 -50342" />
  </flow>
  <flow id="demo_6_morning_peak_03_north_through" type="demo_6_official_passenger" begin="2700" end="3600" number="79" departLane="best" departSpeed="max">
    <route edges="-50819 -50818" />
  </flow>
  <flow id="demo_6_morning_peak_03_north_right" type="demo_6_official_passenger" begin="2700" end="3600" number="33" departLane="best" departSpeed="max">
    <route edges="-50819 -56614" />
  </flow>
  <flow id="demo_6_morning_peak_04_east_left" type="demo_6_official_passenger" begin="3600" end="4500" number="53" departLane="best" departSpeed="max">
    <route edges="-56623 -50818" />
  </flow>
  <flow id="demo_6_morning_peak_04_east_through" type="demo_6_official_passenger" begin="3600" end="4500" number="106" departLane="best" departSpeed="max">
    <route edges="-56623 -56614" />
  </flow>
  <flow id="demo_6_morning_peak_04_east_right" type="demo_6_official_passenger" begin="3600" end="4500" number="25" departLane="best" departSpeed="max">
    <route edges="-56623 -57585" />
  </flow>
  <flow id="demo_6_morning_peak_04_west_left" type="demo_6_official_passenger" begin="3600" end="4500" number="14" departLane="best" departSpeed="max">
    <route edges="-50334 -57585" />
  </flow>
  <flow id="demo_6_morning_peak_04_west_through" type="demo_6_official_passenger" begin="3600" end="4500" number="61" departLane="best" departSpeed="max">
    <route edges="-50334 -50342" />
  </flow>
  <flow id="demo_6_morning_peak_04_west_right" type="demo_6_official_passenger" begin="3600" end="4500" number="20" departLane="best" departSpeed="max">
    <route edges="-50334 -50818" />
  </flow>
  <flow id="demo_6_morning_peak_04_south_left" type="demo_6_official_passenger" begin="3600" end="4500" number="62" departLane="best" departSpeed="max">
    <route edges="-57584 -56614" />
  </flow>
  <flow id="demo_6_morning_peak_04_south_through" type="demo_6_official_passenger" begin="3600" end="4500" number="41" departLane="best" departSpeed="max">
    <route edges="-57584 -57585" />
  </flow>
  <flow id="demo_6_morning_peak_04_south_right" type="demo_6_official_passenger" begin="3600" end="4500" number="19" departLane="best" departSpeed="max">
    <route edges="-57584 -50342" />
  </flow>
  <flow id="demo_6_morning_peak_04_north_left" type="demo_6_official_passenger" begin="3600" end="4500" number="27" departLane="best" departSpeed="max">
    <route edges="-50819 -50342" />
  </flow>
  <flow id="demo_6_morning_peak_04_north_through" type="demo_6_official_passenger" begin="3600" end="4500" number="91" departLane="best" departSpeed="max">
    <route edges="-50819 -50818" />
  </flow>
  <flow id="demo_6_morning_peak_04_north_right" type="demo_6_official_passenger" begin="3600" end="4500" number="14" departLane="best" departSpeed="max">
    <route edges="-50819 -56614" />
  </flow>
  <flow id="demo_6_morning_peak_05_east_left" type="demo_6_official_passenger" begin="4500" end="5400" number="41" departLane="best" departSpeed="max">
    <route edges="-56623 -50818" />
  </flow>
  <flow id="demo_6_morning_peak_05_east_through" type="demo_6_official_passenger" begin="4500" end="5400" number="102" departLane="best" departSpeed="max">
    <route edges="-56623 -56614" />
  </flow>
  <flow id="demo_6_morning_peak_05_east_right" type="demo_6_official_passenger" begin="4500" end="5400" number="40" departLane="best" departSpeed="max">
    <route edges="-56623 -57585" />
  </flow>
  <flow id="demo_6_morning_peak_05_west_left" type="demo_6_official_passenger" begin="4500" end="5400" number="13" departLane="best" departSpeed="max">
    <route edges="-50334 -57585" />
  </flow>
  <flow id="demo_6_morning_peak_05_west_through" type="demo_6_official_passenger" begin="4500" end="5400" number="56" departLane="best" departSpeed="max">
    <route edges="-50334 -50342" />
  </flow>
  <flow id="demo_6_morning_peak_05_west_right" type="demo_6_official_passenger" begin="4500" end="5400" number="27" departLane="best" departSpeed="max">
    <route edges="-50334 -50818" />
  </flow>
  <flow id="demo_6_morning_peak_05_south_left" type="demo_6_official_passenger" begin="4500" end="5400" number="42" departLane="best" departSpeed="max">
    <route edges="-57584 -56614" />
  </flow>
  <flow id="demo_6_morning_peak_05_south_through" type="demo_6_official_passenger" begin="4500" end="5400" number="39" departLane="best" departSpeed="max">
    <route edges="-57584 -57585" />
  </flow>
  <flow id="demo_6_morning_peak_05_south_right" type="demo_6_official_passenger" begin="4500" end="5400" number="25" departLane="best" departSpeed="max">
    <route edges="-57584 -50342" />
  </flow>
  <flow id="demo_6_morning_peak_05_north_left" type="demo_6_official_passenger" begin="4500" end="5400" number="26" departLane="best" departSpeed="max">
    <route edges="-50819 -50342" />
  </flow>
  <flow id="demo_6_morning_peak_05_north_through" type="demo_6_official_passenger" begin="4500" end="5400" number="95" departLane="best" departSpeed="max">
    <route edges="-50819 -50818" />
  </flow>
  <flow id="demo_6_morning_peak_05_north_right" type="demo_6_official_passenger" begin="4500" end="5400" number="12" departLane="best" departSpeed="max">
    <route edges="-50819 -56614" />
  </flow>
  <flow id="demo_6_morning_peak_06_east_left" type="demo_6_official_passenger" begin="5400" end="6300" number="38" departLane="best" departSpeed="max">
    <route edges="-56623 -50818" />
  </flow>
  <flow id="demo_6_morning_peak_06_east_through" type="demo_6_official_passenger" begin="5400" end="6300" number="113" departLane="best" departSpeed="max">
    <route edges="-56623 -56614" />
  </flow>
  <flow id="demo_6_morning_peak_06_east_right" type="demo_6_official_passenger" begin="5400" end="6300" number="53" departLane="best" departSpeed="max">
    <route edges="-56623 -57585" />
  </flow>
  <flow id="demo_6_morning_peak_06_west_left" type="demo_6_official_passenger" begin="5400" end="6300" number="8" departLane="best" departSpeed="max">
    <route edges="-50334 -57585" />
  </flow>
  <flow id="demo_6_morning_peak_06_west_through" type="demo_6_official_passenger" begin="5400" end="6300" number="71" departLane="best" departSpeed="max">
    <route edges="-50334 -50342" />
  </flow>
  <flow id="demo_6_morning_peak_06_west_right" type="demo_6_official_passenger" begin="5400" end="6300" number="25" departLane="best" departSpeed="max">
    <route edges="-50334 -50818" />
  </flow>
  <flow id="demo_6_morning_peak_06_south_left" type="demo_6_official_passenger" begin="5400" end="6300" number="38" departLane="best" departSpeed="max">
    <route edges="-57584 -56614" />
  </flow>
  <flow id="demo_6_morning_peak_06_south_through" type="demo_6_official_passenger" begin="5400" end="6300" number="50" departLane="best" departSpeed="max">
    <route edges="-57584 -57585" />
  </flow>
  <flow id="demo_6_morning_peak_06_south_right" type="demo_6_official_passenger" begin="5400" end="6300" number="22" departLane="best" departSpeed="max">
    <route edges="-57584 -50342" />
  </flow>
  <flow id="demo_6_morning_peak_06_north_left" type="demo_6_official_passenger" begin="5400" end="6300" number="33" departLane="best" departSpeed="max">
    <route edges="-50819 -50342" />
  </flow>
  <flow id="demo_6_morning_peak_06_north_through" type="demo_6_official_passenger" begin="5400" end="6300" number="63" departLane="best" departSpeed="max">
    <route edges="-50819 -50818" />
  </flow>
  <flow id="demo_6_morning_peak_06_north_right" type="demo_6_official_passenger" begin="5400" end="6300" number="10" departLane="best" departSpeed="max">
    <route edges="-50819 -56614" />
  </flow>
  <flow id="demo_6_morning_peak_07_east_left" type="demo_6_official_passenger" begin="6300" end="7200" number="55" departLane="best" departSpeed="max">
    <route edges="-56623 -50818" />
  </flow>
  <flow id="demo_6_morning_peak_07_east_through" type="demo_6_official_passenger" begin="6300" end="7200" number="115" departLane="best" departSpeed="max">
    <route edges="-56623 -56614" />
  </flow>
  <flow id="demo_6_morning_peak_07_east_right" type="demo_6_official_passenger" begin="6300" end="7200" number="63" departLane="best" departSpeed="max">
    <route edges="-56623 -57585" />
  </flow>
  <flow id="demo_6_morning_peak_07_west_left" type="demo_6_official_passenger" begin="6300" end="7200" number="20" departLane="best" departSpeed="max">
    <route edges="-50334 -57585" />
  </flow>
  <flow id="demo_6_morning_peak_07_west_through" type="demo_6_official_passenger" begin="6300" end="7200" number="76" departLane="best" departSpeed="max">
    <route edges="-50334 -50342" />
  </flow>
  <flow id="demo_6_morning_peak_07_west_right" type="demo_6_official_passenger" begin="6300" end="7200" number="32" departLane="best" departSpeed="max">
    <route edges="-50334 -50818" />
  </flow>
  <flow id="demo_6_morning_peak_07_south_left" type="demo_6_official_passenger" begin="6300" end="7200" number="50" departLane="best" departSpeed="max">
    <route edges="-57584 -56614" />
  </flow>
  <flow id="demo_6_morning_peak_07_south_through" type="demo_6_official_passenger" begin="6300" end="7200" number="53" departLane="best" departSpeed="max">
    <route edges="-57584 -57585" />
  </flow>
  <flow id="demo_6_morning_peak_07_south_right" type="demo_6_official_passenger" begin="6300" end="7200" number="30" departLane="best" departSpeed="max">
    <route edges="-57584 -50342" />
  </flow>
  <flow id="demo_6_morning_peak_07_north_left" type="demo_6_official_passenger" begin="6300" end="7200" number="27" departLane="best" departSpeed="max">
    <route edges="-50819 -50342" />
  </flow>
  <flow id="demo_6_morning_peak_07_north_through" type="demo_6_official_passenger" begin="6300" end="7200" number="79" departLane="best" departSpeed="max">
    <route edges="-50819 -50818" />
  </flow>
  <flow id="demo_6_morning_peak_07_north_right" type="demo_6_official_passenger" begin="6300" end="7200" number="11" departLane="best" departSpeed="max">
    <route edges="-50819 -56614" />
  </flow>
</routes>