<?xml version='1.0' encoding='utf-8'?>
<routes>
  <vType id="demo_4_official_passenger" vClass="passenger" accel="2.6" decel="4.5" sigma="0.5" length="5" minGap="2.5" maxSpeed="13.9" />
  <flow id="demo_4_evening_peak_00_east_left" type="demo_4_official_passenger" begin="0" end="900" number="48" departLane="best" departSpeed="max">
    <route edges="-50333 -56733" />
  </flow>
  <flow id="demo_4_evening_peak_00_east_through" type="demo_4_official_passenger" begin="0" end="900" number="42" departLane="best" departSpeed="max">
    <route edges="-50333 -50675" />
  </flow>
  <flow id="demo_4_evening_peak_00_east_right" type="demo_4_official_passenger" begin="0" end="900" number="42" departLane="best" departSpeed="max">
    <route edges="-50333 -57230" />
  </flow>
  <flow id="demo_4_evening_peak_00_west_left" type="demo_4_official_passenger" begin="0" end="900" number="19" departLane="best" departSpeed="max">
    <route edges="-57186 -57230" />
  </flow>
  <flow id="demo_4_evening_peak_00_west_through" type="demo_4_official_passenger" begin="0" end="900" number="59" departLane="best" departSpeed="max">
    <route edges="-57186 -56613" />
  </flow>
  <flow id="demo_4_evening_peak_00_west_right" type="demo_4_official_passenger" begin="0" end="900" number="34" departLane="best" departSpeed="max">
    <route edges="-57186 -56733" />
  </flow>
  <flow id="demo_4_evening_peak_00_north_left" type="demo_4_official_passenger" begin="0" end="900" number="39" departLane="best" departSpeed="max">
    <route edges="-56732 -56613" />
  </flow>
  <flow id="demo_4_evening_peak_00_north_through" type="demo_4_official_passenger" begin="0" end="900" number="53" departLane="best" departSpeed="max">
    <route edges="-56732 -56733" />
  </flow>
  <flow id="demo_4_evening_peak_00_north_right" type="demo_4_official_passenger" begin="0" end="900" number="37" departLane="best" departSpeed="max">
    <route edges="-56732 -50675" />
  </flow>
  <flow id="demo_4_evening_peak_00_south_left" type="demo_4_official_passenger" begin="0" end="900" number="36" departLane="best" departSpeed="max">
    <route edges="-57229 -50675" />
  </flow>
  <flow id="demo_4_evening_peak_00_south_through" type="demo_4_official_passenger" begin="0" end="900" number="70" departLane="best" departSpeed="max">
    <route edges="-57229 -57230" />
  </flow>
  <flow id="demo_4_evening_peak_00_south_right" type="demo_4_official_passenger" begin="0" end="900" number="34" departLane="best" departSpeed="max">
    <route edges="-57229 -56613" />
  </flow>
  <flow id="demo_4_evening_peak_01_east_left" type="demo_4_official_passenger" begin="900" end="1800" number="52" departLane="best" departSpeed="max">
    <route edges="-50333 -56733" />
  </flow>
  <flow id="demo_4_evening_peak_01_east_through" type="demo_4_official_passenger" begin="900" end="1800" number="43" departLane="best" departSpeed="max">
    <route edges="-50333 -50675" />
  </flow>
  <flow id="demo_4_evening_peak_01_east_right" type="demo_4_official_passenger" begin="900" end="1800" number="43" departLane="best" departSpeed="max">
    <route edges="-50333 -57230" />
  </flow>
  <flow id="demo_4_evening_peak_01_west_left" type="demo_4_official_passenger" begin="900" end="1800" number="18" departLane="best" departSpeed="max">
    <route edges="-57186 -57230" />
  </flow>
  <flow id="demo_4_evening_peak_01_west_through" type="demo_4_official_passenger" begin="900" end="1800" number="62" departLane="best" departSpeed="max">
    <route edges="-57186 -56613" />
  </flow>
  <flow id="demo_4_evening_peak_01_west_right" type="demo_4_official_passenger" begin="900" end="1800" number="33" departLane="best" departSpeed="max">
    <route edges="-57186 -56733" />
  </flow>
  <flow id="demo_4_evening_peak_01_north_left" type="demo_4_official_passenger" begin="900" end="1800" number="34" departLane="best" departSpeed="max">
    <route edges="-56732 -56613" />
  </flow>
  <flow id="demo_4_evening_peak_01_north_through" type="demo_4_official_passenger" begin="900" end="1800" number="54" departLane="best" departSpeed="max">
    <route edges="-56732 -56733" />
  </flow>
  <flow id="demo_4_evening_peak_01_north_right" type="demo_4_official_passenger" begin="900" end="1800" number="36" departLane="best" departSpeed="max">
    <route edges="-56732 -50675" />
  </flow>
  <flow id="demo_4_evening_peak_01_south_left" type="demo_4_official_passenger" begin="900" end="1800" number="40" departLane="best" departSpeed="max">
    <route edges="-57229 -50675" />
  </flow>
  <flow id="demo_4_evening_peak_01_south_through" type="demo_4_official_passenger" begin="900" end="1800" number="69" departLane="best" departSpeed="max">
    <route edges="-57229 -57230" />
  </flow>
  <flow id="demo_4_evening_peak_01_south_right" type="demo_4_official_passenger" begin="900" end="1800" number="35" departLane="best" departSpeed="max">
    <route edges="-57229 -56613" />
  </flow>
  <flow id="demo_4_evening_peak_02_east_left" type="demo_4_official_passenger" begin="1800" end="2700" number="48" departLane="best" departSpeed="max">
    <route edges="-50333 -56733" />
  </flow>
  <flow id="demo_4_evening_peak_02_east_through" type="demo_4_official_passenger" begin="1800" end="2700" number="40" departLane="best" departSpeed="max">
    <route edges="-50333 -50675" />
  </flow>
  <flow id="demo_4_evening_peak_02_east_right" type="demo_4_official_passenger" begin="1800" end="2700" number="40" departLane="best" departSpeed="max">
    <route edges="-50333 -57230" />
  </flow>
  <flow id="demo_4_evening_peak_02_west_left" type="demo_4_official_passenger" begin="1800" end="2700" number="19" departLane="best" departSpeed="max">
    <route edges="-57186 -57230" />
  </flow>
  <flow id="demo_4_evening_peak_02_west_through" type="demo_4_official_passenger" begin="1800" end="2700" number="59" departLane="best" departSpeed="max">
    <route edges="-57186 -56613" />
  </flow>
  <flow id="demo_4_evening_peak_02_west_right" type="demo_4_official_passenger" begin="1800" end="2700" number="36" departLane="best" departSpeed="max">
    <route edges="-57186 -56733" />
  </flow>
  <flow id="demo_4_evening_peak_02_north_left" type="demo_4_official_passenger" begin="1800" end="2700" number="38" departLane="best" departSpeed="max">
    <route edges="-56732 -56613" />
  </flow>
  <flow id="demo_4_evening_peak_02_north_through" type="demo_4_official_passenger" begin="1800" end="2700" number="49" departLane="best" departSpeed="max">
    <route edges="-56732 -56733" />
  </flow>
  <flow id="demo_4_evening_peak_02_north_right" type="demo_4_official_passenger" begin="1800" end="2700" number="33" departLane="best" departSpeed="max">
    <route edges="-56732 -50675" />
  </flow>
  <flow id="demo_4_evening_peak_02_south_left" type="demo_4_official_passenger" begin="1800" end="2700" number="38" departLane="best" departSpeed="max">
    <route edges="-57229 -50675" />
  </flow>
  <flow id="demo_4_evening_peak_02_south_through" type="demo_4_official_passenger" begin="1800" end="2700" number="70" departLane="best" departSpeed="max">
    <route edges="-57229 -57230" />
  </flow>
  <flow id="demo_4_evening_peak_02_south_right" type="demo_4_official_passenger" begin="1800" end="2700" number="35" departLane="best" departSpeed="max">
    <route edges="-57229 -56613" />
  </flow>
  <flow id="demo_4_evening_peak_03_east_left" type="demo_4_official_passenger" begin="2700" end="3600" number="53" departLane="best" departSpeed="max">
    <route edges="-50333 -56733" />
  </flow>
  <flow id="demo_4_evening_peak_03_east_through" type="demo_4_official_passenger" begin="2700" end="3600" number="43" departLane="best" departSpeed="max">
    <route edges="-50333 -50675" />
  </flow>
  <flow id="demo_4_evening_peak_03_east_right" type="demo_4_official_passenger" begin="2700" end="3600" number="38" departLane="best" departSpeed="max">
    <route edges="-50333 -57230" />
  </flow>
  <flow id="demo_4_evening_peak_03_west_left" type="demo_4_official_passenger" begin="2700" end="3600" number="20" departLane="best" departSpeed="max">
    <route edges="-57186 -57230" />
  </flow>
  <flow id="demo_4_evening_peak_03_west_through" type="demo_4_official_passenger" begin="2700" end="3600" number="60" departLane="best" departSpeed="max">
    <route edges="-57186 -56613" />
  </flow>
  <flow id="demo_4_evening_peak_03_west_right" type="demo_4_official_passenger" begin="2700" end="3600" number="36" departLane="best" departSpeed="max">
    <route edges="-57186 -56733" />
  </flow>
  <flow id="demo_4_evening_peak_03_north_left" type="demo_4_official_passenger" begin="2700" end="3600" number="35" departLane="best" departSpeed="max">
    <route edges="-56732 -56613" />
  </flow>
  <flow id="demo_4_evening_peak_03_north_through" type="demo_4_official_passenger" begin="2700" end="3600" number="50" departLane="best" departSpeed="max">
    <route edges="-56732 -56733" />
  </flow>
  <flow id="demo_4_evening_peak_03_north_right" type="demo_4_official_passenger" begin="2700" end="3600" number="34" departLane="best" departSpeed="max">
    <route edges="-56732 -50675" />
  </flow>
  <flow id="demo_4_evening_peak_03_south_left" type="demo_4_official_passenger" begin="2700" end="3600" number="37" departLane="best" departSpeed="max">
    <route edges="-57229 -50675" />
  </flow>
  <flow id="demo_4_evening_peak_03_south_through" type="demo_4_official_passenger" begin="2700" end="3600" number="67" departLane="best" departSpeed="max">
    <route edges="-57229 -57230" />
  </flow>
  <flow id="demo_4_evening_peak_03_south_right" type="demo_4_official_passenger" begin="2700" end="3600" number="33" departLane="best" departSpeed="max">
    <route edges="-57229 -56613" />
  </flow>
  <flow id="demo_4_evening_peak_04_east_left" type="demo_4_official_passenger" begin="3600" end="4500" number="53" departLane="best" departSpeed="max">
    <route edges="-50333 -56733" />
  </flow>
  <flow id="demo_4_evening_peak_04_east_through" type="demo_4_official_passenger" begin="3600" end="4500" number="39" departLane="best" departSpeed="max">
    <route edges="-50333 -50675" />
  </flow>
  <flow id="demo_4_evening_peak_04_east_right" type="demo_4_official_passenger" begin="3600" end="4500" number="42" departLane="best" departSpeed="max">
    <route edges="-50333 -57230" />
  </flow>
  <flow id="demo_4_evening_peak_04_west_left" type="demo_4_official_passenger" begin="3600" end="4500" number="22" departLane="best" departSpeed="max">
    <route edges="-57186 -57230" />
  </flow>
  <flow id="demo_4_evening_peak_04_west_through" type="demo_4_official_passenger" begin="3600" end="4500" number="61" departLane="best" departSpeed="max">
    <route edges="-57186 -56613" />
  </flow>
  <flow id="demo_4_evening_peak_04_west_right" type="demo_4_official_passenger" begin="3600" end="4500" number="35" departLane="best" departSpeed="max">
    <route edges="-57186 -56733" />
  </flow>
  <flow id="demo_4_evening_peak_04_north_left" type="demo_4_official_passenger" begin="3600" end="4500" number="36" departLane="best" departSpeed="max">
    <route edges="-56732 -56613" />
  </flow>
  <flow id="demo_4_evening_peak_04_north_through" type="demo_4_official_passenger" begin="3600" end="4500" number="53" departLane="best" departSpeed="max">
    <route edges="-56732 -56733" />
  </flow>
  <flow id="demo_4_evening_peak_04_north_right" type="demo_4_official_passenger" begin="3600" end="4500" number="32" departLane="best" departSpeed="max">
    <route edges="-56732 -50675" />
  </flow>
  <flow id="demo_4_evening_peak_04_south_left" type="demo_4_official_passenger" begin="3600" end="4500" number="35" departLane="best" departSpeed="max">
    <route edges="-57229 -50675" />
  </flow>
  <flow id="demo_4_evening_peak_04_south_through" type="demo_4_official_passenger" begin="3600" end="4500" number="69" departLane="best" departSpeed="max">
    <route edges="-57229 -57230" />
  </flow>
  <flow id="demo_4_evening_peak_04_south_right" type="demo_4_official_passenger" begin="3600" end="4500" number="31" departLane="best" departSpeed="max">
    <route edges="-57229 -56613" />
  </flow>
  <flow id="demo_4_evening_peak_05_east_left" type="demo_4_official_passenger" begin="4500" end="5400" number="49" departLane="best" departSpeed="max">
    <route edges="-50333 -56733" />
  </flow>
  <flow id="demo_4_evening_peak_05_east_through" type="demo_4_official_passenger" begin="4500" end="5400" number="39" departLane="best" departSpeed="max">
    <route edges="-50333 -50675" />
  </flow>
  <flow id="demo_4_evening_peak_05_east_right" type="demo_4_official_passenger" begin="4500" end="5400" number="38" departLane="best" departSpeed="max">
    <route edges="-50333 -57230" />
  </flow>
  <flow id="demo_4_evening_peak_05_west_left" type="demo_4_official_passenger" begin="4500" end="5400" number="18" departLane="best" departSpeed="max">
    <route edges="-57186 -57230" />
  </flow>
  <flow id="demo_4_evening_peak_05_west_through" type="demo_4_official_passenger" begin="4500" end="5400" number="57" departLane="best" departSpeed="max">
    <route edges="-57186 -56613" />
  </flow>
  <flow id="demo_4_evening_peak_05_west_right" type="demo_4_official_passenger" begin="4500" end="5400" number="38" departLane="best" departSpeed="max">
    <route edges="-57186 -56733" />
  </flow>
  <flow id="demo_4_evening_peak_05_north_left" type="demo_4_official_passenger" begin="4500" end="5400" number="38" departLane="best" departSpeed="max">
    <route edges="-56732 -56613" />
  </flow>
  <flow id="demo_4_evening_peak_05_north_through" type="demo_4_official_passenger" begin="4500" end="5400" number="52" departLane="best" departSpeed="max">
    <route edges="-56732 -56733" />
  </flow>
  <flow id="demo_4_evening_peak_05_north_right" type="demo_4_official_passenger" begin="4500" end="5400" number="37" departLane="best" departSpeed="max">
    <route edges="-56732 -50675" />
  </flow>
  <flow id="demo_4_evening_peak_05_south_left" type="demo_4_official_passenger" begin="4500" end="5400" number="40" departLane="best" departSpeed="max">
    <route edges="-57229 -50675" />
  </flow>
  <flow id="demo_4_evening_peak_05_south_through" type="demo_4_official_passenger" begin="4500" end="5400" number="67" departLane="best" departSpeed="max">
    <route edges="-57229 -57230" />
  </flow>
  <flow id="demo_4_evening_peak_05_south_right" type="demo_4_official_passenger" begin="4500" end="5400" number="33" departLane="best" departSpeed="max">
    <route edges="-57229 -56613" />
  </flow>
  <flow id="demo_4_evening_peak_06_east_left" type="demo_4_official_passenger" begin="5400" end="6300" number="50" departLane="best" departSpeed="max">
    <route edges="-50333 -56733" />
  </flow>
  <flow id="demo_4_evening_peak_06_east_through" type="demo_4_official_passenger" begin="5400" end="6300" number="40" departLane="best" departSpeed="max">
    <route edges="-50333 -50675" />
  </flow>
  <flow id="demo_4_evening_peak_06_east_right" type="demo_4_official_passenger" begin="5400" end="6300" number="42" departLane="best" departSpeed="max">
    <route edges="-50333 -57230" />
  </flow>
  <flow id="demo_4_evening_peak_06_west_left" type="demo_4_official_passenger" begin="5400" end="6300" number="21" departLane="best" departSpeed="max">
    <route edges="-57186 -57230" />
  </flow>
  <flow id="demo_4_evening_peak_06_west_through" type="demo_4_official_passenger" begin="5400" end="6300" number="60" departLane="best" departSpeed="max">
    <route edges="-57186 -56613" />
  </flow>
  <flow id="demo_4_evening_peak_06_west_right" type="demo_4_official_passenger" begin="5400" end="6300" number="37" departLane="best" departSpeed="max">
    <route edges="-57186 -56733" />
  </flow>
  <flow id="demo_4_evening_peak_06_north_left" type="demo_4_official_passenger" begin="5400" end="6300" number="38" departLane="best" departSpeed="max">
    <route edges="-56732 -56613" />
  </flow>
  <flow id="demo_4_evening_peak_06_north_through" type="demo_4_official_passenger" begin="5400" end="6300" number="53" departLane="best" departSpeed="max">
    <route edges="-56732 -56733" />
  </flow>
  <flow id="demo_4_evening_peak_06_north_right" type="demo_4_official_passenger" begin="5400" end="6300" number="32" departLane="best" departSpeed="max">
    <route edges="-56732 -50675" />
  </flow>
  <flow id="demo_4_evening_peak_06_south_left" type="demo_4_official_passenger" begin="5400" end="6300" number="38" departLane="best" departSpeed="max">
    <route edges="-57229 -50675" />
  </flow>
  <flow id="demo_4_evening_peak_06_south_through" type="demo_4_official_passenger" begin="5400" end="6300" number="71" departLane="best" departSpeed="max">
    <route edges="-57229 -57230" />
  </flow>
  <flow id="demo_4_evening_peak_06_south_right" type="demo_4_official_passenger" begin="5400" end="6300" number="35" departLane="best" departSpeed="max">
    <route edges="-57229 -56613" />
  </flow>
  <flow id="demo_4_evening_peak_07_east_left" type="demo_4_official_passenger" begin="6300" end="7200" number="48" departLane="best" departSpeed="max">
    <route edges="-50333 -56733" />
  </flow>
  <flow id="demo_4_evening_peak_07_east_through" type="demo_4_official_passenger" begin="6300" end="7200" number="41" departLane="best" departSpeed="max">
    <route edges="-50333 -50675" />
  </flow>
  <flow id="demo_4_evening_peak_07_east_right" type="demo_4_official_passenger" begin="6300" end="7200" number="41" departLane="best" departSpeed="max">
    <route edges="-50333 -57230" />
  </flow>
  <flow id="demo_4_evening_peak_07_west_left" type="demo_4_official_passenger" begin="6300" end="7200" number="18" departLane="best" departSpeed="max">
    <route edges="-57186 -57230" />
  </flow>
  <flow id="demo_4_evening_peak_07_west_through" type="demo_4_official_passenger" begin="6300" end="7200" number="59" departLane="best" departSpeed="max">
    <route edges="-57186 -56613" />
  </flow>
  <flow id="demo_4_evening_peak_07_west_right" type="demo_4_official_passenger" begin="6300" end="7200" number="35" departLane="best" departSpeed="max">
    <route edges="-57186 -56733" />
  </flow>
  <flow id="demo_4_evening_peak_07_north_left" type="demo_4_official_passenger" begin="6300" end="7200" number="37" departLane="best" departSpeed="max">
    <route edges="-56732 -56613" />
  </flow>
  <flow id="demo_4_evening_peak_07_north_through" type="demo_4_official_passenger" begin="6300" end="7200" number="49" departLane="best" departSpeed="max">
    <route edges="-56732 -56733" />
  </flow>
  <flow id="demo_4_evening_peak_07_north_right" type="demo_4_official_passenger" begin="6300" end="7200" number="34" departLane="best" departSpeed="max">
    <route edges="-56732 -50675" />
  </flow>
  <flow id="demo_4_evening_peak_07_south_left" type="demo_4_official_passenger" begin="6300" end="7200" number="39" departLane="best" departSpeed="max">
    <route edges="-57229 -50675" />
  </flow>
  <flow id="demo_4_evening_peak_07_south_through" type="demo_4_official_passenger" begin="6300" end="7200" number="66" departLane="best" departSpeed="max">
    <route edges="-57229 -57230" />
  </flow>
  <flow id="demo_4_evening_peak_07_south_right" type="demo_4_official_passenger" begin="6300" end="7200" number="32" departLane="best" departSpeed="max">
    <route edges="-57229 -56613" />
  </flow>
</routes>