<?xml version='1.0' encoding='utf-8'?>
<additional>
  <tlLogic id="3935" type="static" programID="demo_4_evening_peak" offset="0">
    <phase duration="45" state="rGgrrrgrGGgrrrg" name="p1_green" />
    <phase duration="3" state="rygrrrgryygrrrg" name="p1_yellow" />
    <phase duration="2" state="rrgrrrgrrrgrrrg" name="p1_clearance" />
    <phase duration="30" state="GrgrrrgGrrgrrrg" name="p2_green" />
    <phase duration="3" state="yrgrrrgyrrgrrrg" name="p2_yellow" />
    <phase duration="2" state="rrgrrrgrrrgrrrg" name="p2_clearance" />
    <phase duration="48" state="rrgrGGgrrrgrGGg" name="p3_green" />
    <phase duration="3" state="rrgryygrrrgryyg" name="p3_yellow" />
    <phase duration="2" state="rrgrrrgrrrgrrrg" name="p3_clearance" />
    <phase duration="37" state="rrgGrrgrrrgGrrg" name="p4_green" />
    <phase duration="3" state="rrgyrrgrrrgyrrg" name="p4_yellow" />
    <phase duration="2" state="rrgrrrgrrrgrrrg" name="p4_clearance" />
  </tlLogic>
</additional>