<?xml version='1.0' encoding='utf-8'?>
<additional>
  <tlLogic id="3935" type="static" programID="demo_4_evening_peak" offset="0">
    <phase duration="45" state="ggrrrrgGGrggrrrrggGGrr" name="p1_green" />
    <phase duration="3" state="ggrrrrgyyrggrrrrggyyrr" name="p1_yellow" />
    <phase duration="2" state="ggrrrrgrrrggrrrrggrrrr" name="p1_clearance" />
    <phase duration="30" state="ggrrrrgrrGggrrrrggrrGG" name="p2_green" />
    <phase duration="3" state="ggrrrrgrryggrrrrggrryy" name="p2_yellow" />
    <phase duration="2" state="ggrrrrgrrrggrrrrggrrrr" name="p2_clearance" />
    <phase duration="48" state="ggGGrrgrrrggGGrrggrrrr" name="p3_green" />
    <phase duration="3" state="ggyyrrgrrrggyyrrggrrrr" name="p3_yellow" />
    <phase duration="2" state="ggrrrrgrrrggrrrrggrrrr" name="p3_clearance" />
    <phase duration="37" state="ggrrGGgrrrggrrGGggrrrr" name="p4_green" />
    <phase duration="3" state="ggrryygrrrggrryyggrrrr" name="p4_yellow" />
    <phase duration="2" state="ggrrrrgrrrggrrrrggrrrr" name="p4_clearance" />
  </tlLogic>
</additional>