<?xml version='1.0' encoding='utf-8'?>
<additional>
  <tlLogic id="3935" type="static" programID="demo_4_off_peak" offset="0">
    <phase duration="57" state="ggGGgggrrrggGGggggrrrr" name="p1_green" />
    <phase duration="3" state="ggyyyygrrrggyyyyggrrrr" name="p1_yellow" />
    <phase duration="2" state="ggrrrrgrrrggrrrrggrrrr" name="p1_clearance" />
    <phase duration="34" state="ggrrrrgGGGggrrrrggrrrr" name="p2_green" />
    <phase duration="3" state="ggrrrrgyyyggrrrrggrrrr" name="p2_yellow" />
    <phase duration="2" state="ggrrrrgrrrggrrrrggrrrr" name="p2_clearance" />
    <phase duration="34" state="ggrrrrgrrrggrrrrggGGGG" name="p3_green" />
    <phase duration="3" state="ggrrrrgrrrggrrrrggyyyy" name="p3_yellow" />
    <phase duration="2" state="ggrrrrgrrrggrrrrggrrrr" name="p3_clearance" />
  </tlLogic>
</additional>