<?xml version='1.0' encoding='utf-8'?>
<additional>
  <tlLogic id="3935" type="static" programID="demo_4_off_peak" offset="0">
    <phase duration="57" state="rrgggGGgrrrgggGGg" name="p1_green" />
    <phase duration="3" state="rrgyyyygrrrgyyyyg" name="p1_yellow" />
    <phase duration="2" state="rrgrrrrgrrrgrrrrg" name="p1_clearance" />
    <phase duration="34" state="rrgrrrrgGGGgrrrrg" name="p2_green" />
    <phase duration="3" state="rrgrrrrgyyygrrrrg" name="p2_yellow" />
    <phase duration="2" state="rrgrrrrgrrrgrrrrg" name="p2_clearance" />
    <phase duration="34" state="GGgrrrrgrrrgrrrrg" name="p3_green" />
    <phase duration="3" state="yygrrrrgrrrgrrrrg" name="p3_yellow" />
    <phase duration="2" state="rrgrrrrgrrrgrrrrg" name="p3_clearance" />
  </tlLogic>
</additional>