<?xml version='1.0' encoding='utf-8'?>
<additional>
  <tlLogic id="3935" type="static" programID="demo_4_off_peak" offset="0">
    <phase duration="57" state="rrggGGgrrrggGGg" name="p1_green" />
    <phase duration="3" state="rrgyyygrrrgyyyg" name="p1_yellow" />
    <phase duration="2" state="rrgrrrgrrrgrrrg" name="p1_clearance" />
    <phase duration="34" state="rrgrrrgGGGgrrrg" name="p2_green" />
    <phase duration="3" state="rrgrrrgyyygrrrg" name="p2_yellow" />
    <phase duration="2" state="rrgrrrgrrrgrrrg" name="p2_clearance" />
    <phase duration="34" state="GGgrrrgrrrgrrrg" name="p3_green" />
    <phase duration="3" state="yygrrrgrrrgrrrg" name="p3_yellow" />
    <phase duration="2" state="rrgrrrgrrrgrrrg" name="p3_clearance" />
  </tlLogic>
</additional>