<?xml version='1.0' encoding='utf-8'?>
<routes>
  <vType id="demo_8_official_passenger" vClass="passenger" emissionClass="HBEFA3/PC_G_EU4" accel="2.6" decel="4.5" sigma="0.5" length="5" width="1.8" minGap="2.5" maxSpeed="13.9" />
  <flow id="demo_8_morning_peak_00_east_left" type="demo_8_official_passenger" begin="0" end="900" number="32" departLane="best" departSpeed="max">
    <route edges="-54807 -57113" />
  </flow>
  <flow id="demo_8_morning_peak_00_east_through" type="demo_8_official_passenger" begin="0" end="900" number="98" departLane="best" departSpeed="max">
    <route edges="-54807 -54810" />
  </flow>
  <flow id="demo_8_morning_peak_00_east_right" type="demo_8_official_passenger" begin="0" end="900" number="25" departLane="best" departSpeed="max">
    <route edges="-54807 -57125" />
  </flow>
  <flow id="demo_8_morning_peak_00_west_left" type="demo_8_official_passenger" begin="0" end="900" number="26" departLane="best" departSpeed="max">
    <route edges="-57234 -57125" />
  </flow>
  <flow id="demo_8_morning_peak_00_west_through" type="demo_8_official_passenger" begin="0" end="900" number="110" departLane="best" departSpeed="max">
    <route edges="-57234 -57236" />
  </flow>
  <flow id="demo_8_morning_peak_00_west_right" type="demo_8_official_passenger" begin="0" end="900" number="22" departLane="best" departSpeed="max">
    <route edges="-57234 -57113" />
  </flow>
  <flow id="demo_8_morning_peak_00_north_left" type="demo_8_official_passenger" begin="0" end="900" number="29" departLane="best" departSpeed="max">
    <route edges="-57112 -57236" />
  </flow>
  <flow id="demo_8_morning_peak_00_north_through" type="demo_8_official_passenger" begin="0" end="900" number="120" departLane="best" departSpeed="max">
    <route edges="-57112 -57113" />
  </flow>
  <flow id="demo_8_morning_peak_00_north_right" type="demo_8_official_passenger" begin="0" end="900" number="34" departLane="best" departSpeed="max">
    <route edges="-57112 -54810" />
  </flow>
  <flow id="demo_8_morning_peak_00_south_left" type="demo_8_official_passenger" begin="0" end="900" number="27" departLane="best" departSpeed="max">
    <route edges="-57109 -54810" />
  </flow>
  <flow id="demo_8_morning_peak_00_south_through" type="demo_8_official_passenger" begin="0" end="900" number="104" departLane="best" departSpeed="max">
    <route edges="-57109 -57125" />
  </flow>
  <flow id="demo_8_morning_peak_00_south_right" type="demo_8_official_passenger" begin="0" end="900" number="23" departLane="best" departSpeed="max">
    <route edges="-57109 -57236" />
  </flow>
  <flow id="demo_8_morning_peak_01_east_left" type="demo_8_official_passenger" begin="900" end="1800" number="35" departLane="best" departSpeed="max">
    <route edges="-54807 -57113" />
  </flow>
  <flow id="demo_8_morning_peak_01_east_through" type="demo_8_official_passenger" begin="900" end="1800" number="87" departLane="best" departSpeed="max">
    <route edges="-54807 -54810" />
  </flow>
  <flow id="demo_8_morning_peak_01_east_right" type="demo_8_official_passenger" begin="900" end="1800" number="24" departLane="best" departSpeed="max">
    <route edges="-54807 -57125" />
  </flow>
  <flow id="demo_8_morning_peak_01_west_left" type="demo_8_official_passenger" begin="900" end="1800" number="33" departLane="best" departSpeed="max">
    <route edges="-57234 -57125" />
  </flow>
  <flow id="demo_8_morning_peak_01_west_through" type="demo_8_official_passenger" begin="900" end="1800" number="106" departLane="best" departSpeed="max">
    <route edges="-57234 -57236" />
  </flow>
  <flow id="demo_8_morning_peak_01_west_right" type="demo_8_official_passenger" begin="900" end="1800" number="20" departLane="best" departSpeed="max">
    <route edges="-57234 -57113" />
  </flow>
  <flow id="demo_8_morning_peak_01_north_left" type="demo_8_official_passenger" begin="900" end="1800" number="44" departLane="best" departSpeed="max">
    <route edges="-57112 -57236" />
  </flow>
  <flow id="demo_8_morning_peak_01_north_through" type="demo_8_official_passenger" begin="900" end="1800" number="111" departLane="best" departSpeed="max">
    <route edges="-57112 -57113" />
  </flow>
  <flow id="demo_8_morning_peak_01_north_right" type="demo_8_official_passenger" begin="900" end="1800" number="24" departLane="best" departSpeed="max">
    <route edges="-57112 -54810" />
  </flow>
  <flow id="demo_8_morning_peak_01_south_left" type="demo_8_official_passenger" begin="900" end="1800" number="31" departLane="best" departSpeed="max">
    <route edges="-57109 -54810" />
  </flow>
  <flow id="demo_8_morning_peak_01_south_through" type="demo_8_official_passenger" begin="900" end="1800" number="96" departLane="best" departSpeed="max">
    <route edges="-57109 -57125" />
  </flow>
  <flow id="demo_8_morning_peak_01_south_right" type="demo_8_official_passenger" begin="900" end="1800" number="14" departLane="best" departSpeed="max">
    <route edges="-57109 -57236" />
  </flow>
  <flow id="demo_8_morning_peak_02_east_left" type="demo_8_official_passenger" begin="1800" end="2700" number="37" departLane="best" departSpeed="max">
    <route edges="-54807 -57113" />
  </flow>
  <flow id="demo_8_morning_peak_02_east_through" type="demo_8_official_passenger" begin="1800" end="2700" number="96" departLane="best" departSpeed="max">
    <route edges="-54807 -54810" />
  </flow>
  <flow id="demo_8_morning_peak_02_east_right" type="demo_8_official_passenger" begin="1800" end="2700" number="23" departLane="best" departSpeed="max">
    <route edges="-54807 -57125" />
  </flow>
  <flow id="demo_8_morning_peak_02_west_left" type="demo_8_official_passenger" begin="1800" end="2700" number="27" departLane="best" departSpeed="max">
    <route edges="-57234 -57125" />
  </flow>
  <flow id="demo_8_morning_peak_02_west_through" type="demo_8_official_passenger" begin="1800" end="2700" number="104" departLane="best" departSpeed="max">
    <route edges="-57234 -57236" />
  </flow>
  <flow id="demo_8_morning_peak_02_west_right" type="demo_8_official_passenger" begin="1800" end="2700" number="25" departLane="best" departSpeed="max">
    <route edges="-57234 -57113" />
  </flow>
  <flow id="demo_8_morning_peak_02_north_left" type="demo_8_official_passenger" begin="1800" end="2700" number="27" departLane="best" departSpeed="max">
    <route edges="-57112 -57236" />
  </flow>
  <flow id="demo_8_morning_peak_02_north_through" type="demo_8_official_passenger" begin="1800" end="2700" number="76" departLane="best" departSpeed="max">
    <route edges="-57112 -57113" />
  </flow>
  <flow id="demo_8_morning_peak_02_north_right" type="demo_8_official_passenger" begin="1800" end="2700" number="27" departLane="best" departSpeed="max">
    <route edges="-57112 -54810" />
  </flow>
  <flow id="demo_8_morning_peak_02_south_left" type="demo_8_official_passenger" begin="1800" end="2700" number="40" departLane="best" departSpeed="max">
    <route edges="-57109 -54810" />
  </flow>
  <flow id="demo_8_morning_peak_02_south_through" type="demo_8_official_passenger" begin="1800" end="2700" number="85" departLane="best" departSpeed="max">
    <route edges="-57109 -57125" />
  </flow>
  <flow id="demo_8_morning_peak_02_south_right" type="demo_8_official_passenger" begin="1800" end="2700" number="19" departLane="best" departSpeed="max">
    <route edges="-57109 -57236" />
  </flow>
  <flow id="demo_8_morning_peak_03_east_left" type="demo_8_official_passenger" begin="2700" end="3600" number="34" departLane="best" departSpeed="max">
    <route edges="-54807 -57113" />
  </flow>
  <flow id="demo_8_morning_peak_03_east_through" type="demo_8_official_passenger" begin="2700" end="3600" number="105" departLane="best" departSpeed="max">
    <route edges="-54807 -54810" />
  </flow>
  <flow id="demo_8_morning_peak_03_east_right" type="demo_8_official_passenger" begin="2700" end="3600" number="22" departLane="best" departSpeed="max">
    <route edges="-54807 -57125" />
  </flow>
  <flow id="demo_8_morning_peak_03_west_left" type="demo_8_official_passenger" begin="2700" end="3600" number="40" departLane="best" departSpeed="max">
    <route edges="-57234 -57125" />
  </flow>
  <flow id="demo_8_morning_peak_03_west_through" type="demo_8_official_passenger" begin="2700" end="3600" number="104" departLane="best" departSpeed="max">
    <route edges="-57234 -57236" />
  </flow>
  <flow id="demo_8_morning_peak_03_west_right" type="demo_8_official_passenger" begin="2700" end="3600" number="30" departLane="best" departSpeed="max">
    <route edges="-57234 -57113" />
  </flow>
  <flow id="demo_8_morning_peak_03_north_left" type="demo_8_official_passenger" begin="2700" end="3600" number="30" departLane="best" departSpeed="max">
    <route edges="-57112 -57236" />
  </flow>
  <flow id="demo_8_morning_peak_03_north_through" type="demo_8_official_passenger" begin="2700" end="3600" number="158" departLane="best" departSpeed="max">
    <route edges="-57112 -57113" />
  </flow>
  <flow id="demo_8_morning_peak_03_north_right" type="demo_8_official_passenger" begin="2700" end="3600" number="15" departLane="best" departSpeed="max">
    <route edges="-57112 -54810" />
  </flow>
  <flow id="demo_8_morning_peak_03_south_left" type="demo_8_official_passenger" begin="2700" end="3600" number="32" departLane="best" departSpeed="max">
    <route edges="-57109 -54810" />
  </flow>
  <flow id="demo_8_morning_peak_03_south_through" type="demo_8_official_passenger" begin="2700" end="3600" number="121" departLane="best" departSpeed="max">
    <route edges="-57109 -57125" />
  </flow>
  <flow id="demo_8_morning_peak_03_south_right" type="demo_8_official_passenger" begin="2700" end="3600" number="22" departLane="best" departSpeed="max">
    <route edges="-57109 -57236" />
  </flow>
  <flow id="demo_8_morning_peak_04_east_left" type="demo_8_official_passenger" begin="3600" end="4500" number="36" departLane="best" departSpeed="max">
    <route edges="-54807 -57113" />
  </flow>
  <flow id="demo_8_morning_peak_04_east_through" type="demo_8_official_passenger" begin="3600" end="4500" number="99" departLane="best" departSpeed="max">
    <route edges="-54807 -54810" />
  </flow>
  <flow id="demo_8_morning_peak_04_east_right" type="demo_8_official_passenger" begin="3600" end="4500" number="22" departLane="best" departSpeed="max">
    <route edges="-54807 -57125" />
  </flow>
  <flow id="demo_8_morning_peak_04_west_left" type="demo_8_official_passenger" begin="3600" end="4500" number="32" departLane="best" departSpeed="max">
    <route edges="-57234 -57125" />
  </flow>
  <flow id="demo_8_morning_peak_04_west_through" type="demo_8_official_passenger" begin="3600" end="4500" number="105" departLane="best" departSpeed="max">
    <route edges="-57234 -57236" />
  </flow>
  <flow id="demo_8_morning_peak_04_west_right" type="demo_8_official_passenger" begin="3600" end="4500" number="19" departLane="best" departSpeed="max">
    <route edges="-57234 -57113" />
  </flow>
  <flow id="demo_8_morning_peak_04_north_left" type="demo_8_official_passenger" begin="3600" end="4500" number="30" departLane="best" departSpeed="max">
    <route edges="-57112 -57236" />
  </flow>
  <flow id="demo_8_morning_peak_04_north_through" type="demo_8_official_passenger" begin="3600" end="4500" number="137" departLane="best" departSpeed="max">
    <route edges="-57112 -57113" />
  </flow>
  <flow id="demo_8_morning_peak_04_north_right" type="demo_8_official_passenger" begin="3600" end="4500" number="26" departLane="best" departSpeed="max">
    <route edges="-57112 -54810" />
  </flow>
  <flow id="demo_8_morning_peak_04_south_left" type="demo_8_official_passenger" begin="3600" end="4500" number="21" departLane="best" departSpeed="max">
    <route edges="-57109 -54810" />
  </flow>
  <flow id="demo_8_morning_peak_04_south_through" type="demo_8_official_passenger" begin="3600" end="4500" number="110" departLane="best" departSpeed="max">
    <route edges="-57109 -57125" />
  </flow>
  <flow id="demo_8_morning_peak_04_south_right" type="demo_8_official_passenger" begin="3600" end="4500" number="31" departLane="best" departSpeed="max">
    <route edges="-57109 -57236" />
  </flow>
  <flow id="demo_8_morning_peak_05_east_left" type="demo_8_official_passenger" begin="4500" end="5400" number="35" departLane="best" departSpeed="max">
    <route edges="-54807 -57113" />
  </flow>
  <flow id="demo_8_morning_peak_05_east_through" type="demo_8_official_passenger" begin="4500" end="5400" number="95" departLane="best" departSpeed="max">
    <route edges="-54807 -54810" />
  </flow>
  <flow id="demo_8_morning_peak_05_east_right" type="demo_8_official_passenger" begin="4500" end="5400" number="24" departLane="best" departSpeed="max">
    <route edges="-54807 -57125" />
  </flow>
  <flow id="demo_8_morning_peak_05_west_left" type="demo_8_official_passenger" begin="4500" end="5400" number="35" departLane="best" departSpeed="max">
    <route edges="-57234 -57125" />
  </flow>
  <flow id="demo_8_morning_peak_05_west_through" type="demo_8_official_passenger" begin="4500" end="5400" number="103" departLane="best" departSpeed="max">
    <route edges="-57234 -57236" />
  </flow>
  <flow id="demo_8_morning_peak_05_west_right" type="demo_8_official_passenger" begin="4500" end="5400" number="19" departLane="best" departSpeed="max">
    <route edges="-57234 -57113" />
  </flow>
  <flow id="demo_8_morning_peak_05_north_left" type="demo_8_official_passenger" begin="4500" end="5400" number="31" departLane="best" departSpeed="max">
    <route edges="-57112 -57236" />
  </flow>
  <flow id="demo_8_morning_peak_05_north_through" type="demo_8_official_passenger" begin="4500" end="5400" number="74" departLane="best" departSpeed="max">
    <route edges="-57112 -57113" />
  </flow>
  <flow id="demo_8_morning_peak_05_north_right" type="demo_8_official_passenger" begin="4500" end="5400" number="23" departLane="best" departSpeed="max">
    <route edges="-57112 -54810" />
  </flow>
  <flow id="demo_8_morning_peak_05_south_left" type="demo_8_official_passenger" begin="4500" end="5400" number="35" departLane="best" departSpeed="max">
    <route edges="-57109 -54810" />
  </flow>
  <flow id="demo_8_morning_peak_05_south_through" type="demo_8_official_passenger" begin="4500" end="5400" number="93" departLane="best" departSpeed="max">
    <route edges="-57109 -57125" />
  </flow>
  <flow id="demo_8_morning_peak_05_south_right" type="demo_8_official_passenger" begin="4500" end="5400" number="29" departLane="best" departSpeed="max">
    <route edges="-57109 -57236" />
  </flow>
  <flow id="demo_8_morning_peak_06_east_left" type="demo_8_official_passenger" begin="5400" end="6300" number="29" departLane="best" departSpeed="max">
    <route edges="-54807 -57113" />
  </flow>
  <flow id="demo_8_morning_peak_06_east_through" type="demo_8_official_passenger" begin="5400" end="6300" number="98" departLane="best" departSpeed="max">
    <route edges="-54807 -54810" />
  </flow>
  <flow id="demo_8_morning_peak_06_east_right" type="demo_8_official_passenger" begin="5400" end="6300" number="22" departLane="best" departSpeed="max">
    <route edges="-54807 -57125" />
  </flow>
  <flow id="demo_8_morning_peak_06_west_left" type="demo_8_official_passenger" begin="5400" end="6300" number="18" departLane="best" departSpeed="max">
    <route edges="-57234 -57125" />
  </flow>
  <flow id="demo_8_morning_peak_06_west_through" type="demo_8_official_passenger" begin="5400" end="6300" number="103" departLane="best" departSpeed="max">
    <route edges="-57234 -57236" />
  </flow>
  <flow id="demo_8_morning_peak_06_west_right" type="demo_8_official_passenger" begin="5400" end="6300" number="25" departLane="best" departSpeed="max">
    <route edges="-57234 -57113" />
  </flow>
  <flow id="demo_8_morning_peak_06_north_left" type="demo_8_official_passenger" begin="5400" end="6300" number="36" departLane="best" departSpeed="max">
    <route edges="-57112 -57236" />
  </flow>
  <flow id="demo_8_morning_peak_06_north_through" type="demo_8_official_passenger" begin="5400" end="6300" number="108" departLane="best" departSpeed="max">
    <route edges="-57112 -57113" />
  </flow>
  <flow id="demo_8_morning_peak_06_north_right" type="demo_8_official_passenger" begin="5400" end="6300" number="21" departLane="best" departSpeed="max">
    <route edges="-57112 -54810" />
  </flow>
  <flow id="demo_8_morning_peak_06_south_left" type="demo_8_official_passenger" begin="5400" end="6300" number="31" departLane="best" departSpeed="max">
    <route edges="-57109 -54810" />
  </flow>
  <flow id="demo_8_morning_peak_06_south_through" type="demo_8_official_passenger" begin="5400" end="6300" number="101" departLane="best" departSpeed="max">
    <route edges="-57109 -57125" />
  </flow>
  <flow id="demo_8_morning_peak_06_south_right" type="demo_8_official_passenger" begin="5400" end="6300" number="21" departLane="best" departSpeed="max">
    <route edges="-57109 -57236" />
  </flow>
  <flow id="demo_8_morning_peak_07_east_left" type="demo_8_official_passenger" begin="6300" end="7200" number="34" departLane="best" departSpeed="max">
    <route edges="-54807 -57113" />
  </flow>
  <flow id="demo_8_morning_peak_07_east_through" type="demo_8_official_passenger" begin="6300" end="7200" number="93" departLane="best" departSpeed="max">
    <route edges="-54807 -54810" />
  </flow>
  <flow id="demo_8_morning_peak_07_east_right" type="demo_8_official_passenger" begin="6300" end="7200" number="24" departLane="best" departSpeed="max">
    <route edges="-54807 -57125" />
  </flow>
  <flow id="demo_8_morning_peak_07_west_left" type="demo_8_official_passenger" begin="6300" end="7200" number="49" departLane="best" departSpeed="max">
    <route edges="-57234 -57125" />
  </flow>
  <flow id="demo_8_morning_peak_07_west_through" type="demo_8_official_passenger" begin="6300" end="7200" number="106" departLane="best" departSpeed="max">
    <route edges="-57234 -57236" />
  </flow>
  <flow id="demo_8_morning_peak_07_west_right" type="demo_8_official_passenger" begin="6300" end="7200" number="35" departLane="best" departSpeed="max">
    <route edges="-57234 -57113" />
  </flow>
  <flow id="demo_8_morning_peak_07_north_left" type="demo_8_official_passenger" begin="6300" end="7200" number="10" departLane="best" departSpeed="max">
    <route edges="-57112 -57236" />
  </flow>
  <flow id="demo_8_morning_peak_07_north_through" type="demo_8_official_passenger" begin="6300" end="7200" number="112" departLane="best" departSpeed="max">
    <route edges="-57112 -57113" />
  </flow>
  <flow id="demo_8_morning_peak_07_north_right" type="demo_8_official_passenger" begin="6300" end="7200" number="27" departLane="best" departSpeed="max">
    <route edges="-57112 -54810" />
  </flow>
  <flow id="demo_8_morning_peak_07_south_left" type="demo_8_official_passenger" begin="6300" end="7200" number="28" departLane="best" departSpeed="max">
    <route edges="-57109 -54810" />
  </flow>
  <flow id="demo_8_morning_peak_07_south_through" type="demo_8_official_passenger" begin="6300" end="7200" number="99" departLane="best" departSpeed="max">
    <route edges="-57109 -57125" />
  </flow>
  <flow id="demo_8_morning_peak_07_south_right" type="demo_8_official_passenger" begin="6300" end="7200" number="22" departLane="best" departSpeed="max">
    <route edges="-57109 -57236" />
  </flow>
</routes>