<?xml version='1.0' encoding='utf-8'?>
<routes>
  <vType id="demo_17_official_passenger" vClass="passenger" emissionClass="HBEFA3/PC_G_EU4" accel="2.6" decel="4.5" sigma="0.5" length="5" width="1.8" minGap="2.5" maxSpeed="13.9" />
  <flow id="demo_17_evening_peak_00_east_left" type="demo_17_official_passenger" begin="0" end="900" number="97" departLane="best" departSpeed="max">
    <route edges="-56184 -57321" />
  </flow>
  <flow id="demo_17_evening_peak_00_east_right" type="demo_17_official_passenger" begin="0" end="900" number="72" departLane="best" departSpeed="max">
    <route edges="-56184 -57330" />
  </flow>
  <flow id="demo_17_evening_peak_00_north_left" type="demo_17_official_passenger" begin="0" end="900" number="92" departLane="best" departSpeed="max">
    <route edges="-57320 -50050" />
  </flow>
  <flow id="demo_17_evening_peak_00_north_through" type="demo_17_official_passenger" begin="0" end="900" number="62" departLane="best" departSpeed="max">
    <route edges="-57320 -57321" />
  </flow>
  <flow id="demo_17_evening_peak_00_south_through" type="demo_17_official_passenger" begin="0" end="900" number="53" departLane="best" departSpeed="max">
    <route edges="-57329 -57330" />
  </flow>
  <flow id="demo_17_evening_peak_00_south_right" type="demo_17_official_passenger" begin="0" end="900" number="106" departLane="best" departSpeed="max">
    <route edges="-57329 -50050" />
  </flow>
  <flow id="demo_17_evening_peak_01_east_left" type="demo_17_official_passenger" begin="900" end="1800" number="103" departLane="best" departSpeed="max">
    <route edges="-56184 -57321" />
  </flow>
  <flow id="demo_17_evening_peak_01_east_right" type="demo_17_official_passenger" begin="900" end="1800" number="68" departLane="best" departSpeed="max">
    <route edges="-56184 -57330" />
  </flow>
  <flow id="demo_17_evening_peak_01_north_left" type="demo_17_official_passenger" begin="900" end="1800" number="85" departLane="best" departSpeed="max">
    <route edges="-57320 -50050" />
  </flow>
  <flow id="demo_17_evening_peak_01_north_through" type="demo_17_official_passenger" begin="900" end="1800" number="58" departLane="best" departSpeed="max">
    <route edges="-57320 -57321" />
  </flow>
  <flow id="demo_17_evening_peak_01_south_through" type="demo_17_official_passenger" begin="900" end="1800" number="72" departLane="best" departSpeed="max">
    <route edges="-57329 -57330" />
  </flow>
  <flow id="demo_17_evening_peak_01_south_right" type="demo_17_official_passenger" begin="900" end="1800" number="98" departLane="best" departSpeed="max">
    <route edges="-57329 -50050" />
  </flow>
  <flow id="demo_17_evening_peak_02_east_left" type="demo_17_official_passenger" begin="1800" end="2700" number="92" departLane="best" departSpeed="max">
    <route edges="-56184 -57321" />
  </flow>
  <flow id="demo_17_evening_peak_02_east_right" type="demo_17_official_passenger" begin="1800" end="2700" number="65" departLane="best" departSpeed="max">
    <route edges="-56184 -57330" />
  </flow>
  <flow id="demo_17_evening_peak_02_north_left" type="demo_17_official_passenger" begin="1800" end="2700" number="88" departLane="best" departSpeed="max">
    <route edges="-57320 -50050" />
  </flow>
  <flow id="demo_17_evening_peak_02_north_through" type="demo_17_official_passenger" begin="1800" end="2700" number="65" departLane="best" departSpeed="max">
    <route edges="-57320 -57321" />
  </flow>
  <flow id="demo_17_evening_peak_02_south_through" type="demo_17_official_passenger" begin="1800" end="2700" number="79" departLane="best" departSpeed="max">
    <route edges="-57329 -57330" />
  </flow>
  <flow id="demo_17_evening_peak_02_south_right" type="demo_17_official_passenger" begin="1800" end="2700" number="112" departLane="best" departSpeed="max">
    <route edges="-57329 -50050" />
  </flow>
  <flow id="demo_17_evening_peak_03_east_left" type="demo_17_official_passenger" begin="2700" end="3600" number="108" departLane="best" departSpeed="max">
    <route edges="-56184 -57321" />
  </flow>
  <flow id="demo_17_evening_peak_03_east_right" type="demo_17_official_passenger" begin="2700" end="3600" number="70" departLane="best" departSpeed="max">
    <route edges="-56184 -57330" />
  </flow>
  <flow id="demo_17_evening_peak_03_north_left" type="demo_17_official_passenger" begin="2700" end="3600" number="90" departLane="best" departSpeed="max">
    <route edges="-57320 -50050" />
  </flow>
  <flow id="demo_17_evening_peak_03_north_through" type="demo_17_official_passenger" begin="2700" end="3600" number="59" departLane="best" departSpeed="max">
    <route edges="-57320 -57321" />
  </flow>
  <flow id="demo_17_evening_peak_03_south_through" type="demo_17_official_passenger" begin="2700" end="3600" number="78" departLane="best" departSpeed="max">
    <route edges="-57329 -57330" />
  </flow>
  <flow id="demo_17_evening_peak_03_south_right" type="demo_17_official_passenger" begin="2700" end="3600" number="101" departLane="best" departSpeed="max">
    <route edges="-57329 -50050" />
  </flow>
  <flow id="demo_17_evening_peak_04_east_left" type="demo_17_official_passenger" begin="3600" end="4500" number="95" departLane="best" departSpeed="max">
    <route edges="-56184 -57321" />
  </flow>
  <flow id="demo_17_evening_peak_04_east_right" type="demo_17_official_passenger" begin="3600" end="4500" number="69" departLane="best" departSpeed="max">
    <route edges="-56184 -57330" />
  </flow>
  <flow id="demo_17_evening_peak_04_north_left" type="demo_17_official_passenger" begin="3600" end="4500" number="86" departLane="best" departSpeed="max">
    <route edges="-57320 -50050" />
  </flow>
  <flow id="demo_17_evening_peak_04_north_through" type="demo_17_official_passenger" begin="3600" end="4500" number="60" departLane="best" departSpeed="max">
    <route edges="-57320 -57321" />
  </flow>
  <flow id="demo_17_evening_peak_04_south_through" type="demo_17_official_passenger" begin="3600" end="4500" number="62" departLane="best" departSpeed="max">
    <route edges="-57329 -57330" />
  </flow>
  <flow id="demo_17_evening_peak_04_south_right" type="demo_17_official_passenger" begin="3600" end="4500" number="95" departLane="best" departSpeed="max">
    <route edges="-57329 -50050" />
  </flow>
  <flow id="demo_17_evening_peak_05_east_left" type="demo_17_official_passenger" begin="4500" end="5400" number="101" departLane="best" departSpeed="max">
    <route edges="-56184 -57321" />
  </flow>
  <flow id="demo_17_evening_peak_05_east_right" type="demo_17_official_passenger" begin="4500" end="5400" number="73" departLane="best" departSpeed="max">
    <route edges="-56184 -57330" />
  </flow>
  <flow id="demo_17_evening_peak_05_north_left" type="demo_17_official_passenger" begin="4500" end="5400" number="89" departLane="best" departSpeed="max">
    <route edges="-57320 -50050" />
  </flow>
  <flow id="demo_17_evening_peak_05_north_through" type="demo_17_official_passenger" begin="4500" end="5400" number="63" departLane="best" departSpeed="max">
    <route edges="-57320 -57321" />
  </flow>
  <flow id="demo_17_evening_peak_05_south_through" type="demo_17_official_passenger" begin="4500" end="5400" number="73" departLane="best" departSpeed="max">
    <route edges="-57329 -57330" />
  </flow>
  <flow id="demo_17_evening_peak_05_south_right" type="demo_17_official_passenger" begin="4500" end="5400" number="104" departLane="best" departSpeed="max">
    <route edges="-57329 -50050" />
  </flow>
  <flow id="demo_17_evening_peak_06_east_left" type="demo_17_official_passenger" begin="5400" end="6300" number="94" departLane="best" departSpeed="max">
    <route edges="-56184 -57321" />
  </flow>
  <flow id="demo_17_evening_peak_06_east_right" type="demo_17_official_passenger" begin="5400" end="6300" number="66" departLane="best" departSpeed="max">
    <route edges="-56184 -57330" />
  </flow>
  <flow id="demo_17_evening_peak_06_north_left" type="demo_17_official_passenger" begin="5400" end="6300" number="87" departLane="best" departSpeed="max">
    <route edges="-57320 -50050" />
  </flow>
  <flow id="demo_17_evening_peak_06_north_through" type="demo_17_official_passenger" begin="5400" end="6300" number="57" departLane="best" departSpeed="max">
    <route edges="-57320 -57321" />
  </flow>
  <flow id="demo_17_evening_peak_06_south_through" type="demo_17_official_passenger" begin="5400" end="6300" number="48" departLane="best" departSpeed="max">
    <route edges="-57329 -57330" />
  </flow>
  <flow id="demo_17_evening_peak_06_south_right" type="demo_17_official_passenger" begin="5400" end="6300" number="110" departLane="best" departSpeed="max">
    <route edges="-57329 -50050" />
  </flow>
  <flow id="demo_17_evening_peak_07_east_left" type="demo_17_official_passenger" begin="6300" end="7200" number="112" departLane="best" departSpeed="max">
    <route edges="-56184 -57321" />
  </flow>
  <flow id="demo_17_evening_peak_07_east_right" type="demo_17_official_passenger" begin="6300" end="7200" number="73" departLane="best" departSpeed="max">
    <route edges="-56184 -57330" />
  </flow>
  <flow id="demo_17_evening_peak_07_north_left" type="demo_17_official_passenger" begin="6300" end="7200" number="83" departLane="best" departSpeed="max">
    <route edges="-57320 -50050" />
  </flow>
  <flow id="demo_17_evening_peak_07_north_through" type="demo_17_official_passenger" begin="6300" end="7200" number="70" departLane="best" departSpeed="max">
    <route edges="-57320 -57321" />
  </flow>
  <flow id="demo_17_evening_peak_07_south_through" type="demo_17_official_passenger" begin="6300" end="7200" number="51" departLane="best" departSpeed="max">
    <route edges="-57329 -57330" />
  </flow>
  <flow id="demo_17_evening_peak_07_south_right" type="demo_17_official_passenger" begin="6300" end="7200" number="118" departLane="best" departSpeed="max">
    <route edges="-57329 -50050" />
  </flow>
</routes>