<?xml version='1.0' encoding='utf-8'?>
<additional>
  <tlLogic id="3935" type="static" programID="demo_4_morning_peak" offset="0">
    <phase duration="52" state="ggGGrrgrrrggGGrrggrrrr" name="p1_green" />
    <phase duration="3" state="ggyyrrgrrrggyyrrggrrrr" name="p1_yellow" />
    <phase duration="2" state="ggrrrrgrrrggrrrrggrrrr" name="p1_clearance" />
    <phase duration="30" state="ggrrGGgrrrggrrGGggrrrr" name="p2_green" />
    <phase duration="3" state="ggrryygrrrggrryyggrrrr" name="p2_yellow" />
    <phase duration="2" state="ggrrrrgrrrggrrrrggrrrr" name="p2_clearance" />
    <phase duration="36" state="ggrrrrgGGGggrrrrggrrrr" name="p3_green" />
    <phase duration="3" state="ggrrrrgyyyggrrrrggrrrr" name="p3_yellow" />
    <phase duration="2" state="ggrrrrgrrrggrrrrggrrrr" name="p3_clearance" />
    <phase duration="42" state="ggrrrrgrrrggrrrrggGGGG" name="p4_green" />
    <phase duration="3" state="ggrrrrgrrrggrrrrggyyyy" name="p4_yellow" />
    <phase duration="2" state="ggrrrrgrrrggrrrrggrrrr" name="p4_clearance" />
  </tlLogic>
</additional>