<?xml version='1.0' encoding='utf-8'?>
<additional>
  <tlLogic id="3935" type="static" programID="demo_4_morning_peak" offset="0">
    <phase duration="52" state="rrgrrGGgrrrgrrGGg" name="p1_green" />
    <phase duration="3" state="rrgrryygrrrgrryyg" name="p1_yellow" />
    <phase duration="2" state="rrgrrrrgrrrgrrrrg" name="p1_clearance" />
    <phase duration="30" state="rrgrGrrgrrrgrGrrg" name="p2_green" />
    <phase duration="3" state="rrgryrrgrrrgryrrg" name="p2_yellow" />
    <phase duration="2" state="rrgrrrrgrrrgrrrrg" name="p2_clearance" />
    <phase duration="36" state="GGgrrrrgrrrgrrrrg" name="p3_green" />
    <phase duration="3" state="yygrrrrgrrrgrrrrg" name="p3_yellow" />
    <phase duration="2" state="rrgrrrrgrrrgrrrrg" name="p3_clearance" />
    <phase duration="42" state="rrgrrrrgGGGgrrrrg" name="p4_green" />
    <phase duration="3" state="rrgrrrrgyyygrrrrg" name="p4_yellow" />
    <phase duration="2" state="rrgrrrrgrrrgrrrrg" name="p4_clearance" />
  </tlLogic>
</additional>