<?xml version='1.0' encoding='utf-8'?>
<routes>
  <vType id="demo_20_official_passenger" vClass="passenger" emissionClass="HBEFA3/PC_G_EU4" accel="2.6" decel="4.5" sigma="0.5" length="5" width="1.8" minGap="2.5" maxSpeed="13.9" />
  <flow id="demo_20_morning_peak_00_east_left" type="demo_20_official_passenger" begin="0" end="900" number="17" departLane="best" departSpeed="max">
    <route edges="-56836 -57314" />
  </flow>
  <flow id="demo_20_morning_peak_00_east_through" type="demo_20_official_passenger" begin="0" end="900" number="34" departLane="best" departSpeed="max">
    <route edges="-56836 -56837" />
  </flow>
  <flow id="demo_20_morning_peak_00_east_right" type="demo_20_official_passenger" begin="0" end="900" number="17" departLane="best" departSpeed="max">
    <route edges="-56836 -56093" />
  </flow>
  <flow id="demo_20_morning_peak_00_west_left" type="demo_20_official_passenger" begin="0" end="900" number="12" departLane="best" departSpeed="max">
    <route edges="-57067 -56093" />
  </flow>
  <flow id="demo_20_morning_peak_00_west_through" type="demo_20_official_passenger" begin="0" end="900" number="25" departLane="best" departSpeed="max">
    <route edges="-57067 -57073" />
  </flow>
  <flow id="demo_20_morning_peak_00_west_right" type="demo_20_official_passenger" begin="0" end="900" number="12" departLane="best" departSpeed="max">
    <route edges="-57067 -57314" />
  </flow>
  <flow id="demo_20_morning_peak_00_north_left" type="demo_20_official_passenger" begin="0" end="900" number="24" departLane="best" departSpeed="max">
    <route edges="-49964 -57073" />
  </flow>
  <flow id="demo_20_morning_peak_00_north_through" type="demo_20_official_passenger" begin="0" end="900" number="49" departLane="best" departSpeed="max">
    <route edges="-49964 -57314" />
  </flow>
  <flow id="demo_20_morning_peak_00_north_right" type="demo_20_official_passenger" begin="0" end="900" number="24" departLane="best" departSpeed="max">
    <route edges="-49964 -56837" />
  </flow>
  <flow id="demo_20_morning_peak_00_south_left" type="demo_20_official_passenger" begin="0" end="900" number="36" departLane="best" departSpeed="max">
    <route edges="-57333 -56837" />
  </flow>
  <flow id="demo_20_morning_peak_00_south_through" type="demo_20_official_passenger" begin="0" end="900" number="73" departLane="best" departSpeed="max">
    <route edges="-57333 -56093" />
  </flow>
  <flow id="demo_20_morning_peak_00_south_right" type="demo_20_official_passenger" begin="0" end="900" number="36" departLane="best" departSpeed="max">
    <route edges="-57333 -57073" />
  </flow>
  <flow id="demo_20_morning_peak_01_east_left" type="demo_20_official_passenger" begin="900" end="1800" number="13" departLane="best" departSpeed="max">
    <route edges="-56836 -57314" />
  </flow>
  <flow id="demo_20_morning_peak_01_east_through" type="demo_20_official_passenger" begin="900" end="1800" number="27" departLane="best" departSpeed="max">
    <route edges="-56836 -56837" />
  </flow>
  <flow id="demo_20_morning_peak_01_east_right" type="demo_20_official_passenger" begin="900" end="1800" number="13" departLane="best" departSpeed="max">
    <route edges="-56836 -56093" />
  </flow>
  <flow id="demo_20_morning_peak_01_west_left" type="demo_20_official_passenger" begin="900" end="1800" number="10" departLane="best" departSpeed="max">
    <route edges="-57067 -56093" />
  </flow>
  <flow id="demo_20_morning_peak_01_west_through" type="demo_20_official_passenger" begin="900" end="1800" number="22" departLane="best" departSpeed="max">
    <route edges="-57067 -57073" />
  </flow>
  <flow id="demo_20_morning_peak_01_west_right" type="demo_20_official_passenger" begin="900" end="1800" number="10" departLane="best" departSpeed="max">
    <route edges="-57067 -57314" />
  </flow>
  <flow id="demo_20_morning_peak_01_north_left" type="demo_20_official_passenger" begin="900" end="1800" number="22" departLane="best" departSpeed="max">
    <route edges="-49964 -57073" />
  </flow>
  <flow id="demo_20_morning_peak_01_north_through" type="demo_20_official_passenger" begin="900" end="1800" number="44" departLane="best" departSpeed="max">
    <route edges="-49964 -57314" />
  </flow>
  <flow id="demo_20_morning_peak_01_north_right" type="demo_20_official_passenger" begin="900" end="1800" number="22" departLane="best" departSpeed="max">
    <route edges="-49964 -56837" />
  </flow>
  <flow id="demo_20_morning_peak_01_south_left" type="demo_20_official_passenger" begin="900" end="1800" number="35" departLane="best" departSpeed="max">
    <route edges="-57333 -56837" />
  </flow>
  <flow id="demo_20_morning_peak_01_south_through" type="demo_20_official_passenger" begin="900" end="1800" number="70" departLane="best" departSpeed="max">
    <route edges="-57333 -56093" />
  </flow>
  <flow id="demo_20_morning_peak_01_south_right" type="demo_20_official_passenger" begin="900" end="1800" number="35" departLane="best" departSpeed="max">
    <route edges="-57333 -57073" />
  </flow>
  <flow id="demo_20_morning_peak_02_east_left" type="demo_20_official_passenger" begin="1800" end="2700" number="18" departLane="best" departSpeed="max">
    <route edges="-56836 -57314" />
  </flow>
  <flow id="demo_20_morning_peak_02_east_through" type="demo_20_official_passenger" begin="1800" end="2700" number="35" departLane="best" departSpeed="max">
    <route edges="-56836 -56837" />
  </flow>
  <flow id="demo_20_morning_peak_02_east_right" type="demo_20_official_passenger" begin="1800" end="2700" number="18" departLane="best" departSpeed="max">
    <route edges="-56836 -56093" />
  </flow>
  <flow id="demo_20_morning_peak_02_west_left" type="demo_20_official_passenger" begin="1800" end="2700" number="12" departLane="best" departSpeed="max">
    <route edges="-57067 -56093" />
  </flow>
  <flow id="demo_20_morning_peak_02_west_through" type="demo_20_official_passenger" begin="1800" end="2700" number="22" departLane="best" departSpeed="max">
    <route edges="-57067 -57073" />
  </flow>
  <flow id="demo_20_morning_peak_02_west_right" type="demo_20_official_passenger" begin="1800" end="2700" number="12" departLane="best" departSpeed="max">
    <route edges="-57067 -57314" />
  </flow>
  <flow id="demo_20_morning_peak_02_north_left" type="demo_20_official_passenger" begin="1800" end="2700" number="23" departLane="best" departSpeed="max">
    <route edges="-49964 -57073" />
  </flow>
  <flow id="demo_20_morning_peak_02_north_through" type="demo_20_official_passenger" begin="1800" end="2700" number="46" departLane="best" departSpeed="max">
    <route edges="-49964 -57314" />
  </flow>
  <flow id="demo_20_morning_peak_02_north_right" type="demo_20_official_passenger" begin="1800" end="2700" number="23" departLane="best" departSpeed="max">
    <route edges="-49964 -56837" />
  </flow>
  <flow id="demo_20_morning_peak_02_south_left" type="demo_20_official_passenger" begin="1800" end="2700" number="35" departLane="best" departSpeed="max">
    <route edges="-57333 -56837" />
  </flow>
  <flow id="demo_20_morning_peak_02_south_through" type="demo_20_official_passenger" begin="1800" end="2700" number="70" departLane="best" departSpeed="max">
    <route edges="-57333 -56093" />
  </flow>
  <flow id="demo_20_morning_peak_02_south_right" type="demo_20_official_passenger" begin="1800" end="2700" number="35" departLane="best" departSpeed="max">
    <route edges="-57333 -57073" />
  </flow>
  <flow id="demo_20_morning_peak_03_east_left" type="demo_20_official_passenger" begin="2700" end="3600" number="15" departLane="best" departSpeed="max">
    <route edges="-56836 -57314" />
  </flow>
  <flow id="demo_20_morning_peak_03_east_through" type="demo_20_official_passenger" begin="2700" end="3600" number="31" departLane="best" departSpeed="max">
    <route edges="-56836 -56837" />
  </flow>
  <flow id="demo_20_morning_peak_03_east_right" type="demo_20_official_passenger" begin="2700" end="3600" number="15" departLane="best" departSpeed="max">
    <route edges="-56836 -56093" />
  </flow>
  <flow id="demo_20_morning_peak_03_west_left" type="demo_20_official_passenger" begin="2700" end="3600" number="13" departLane="best" departSpeed="max">
    <route edges="-57067 -56093" />
  </flow>
  <flow id="demo_20_morning_peak_03_west_through" type="demo_20_official_passenger" begin="2700" end="3600" number="25" departLane="best" departSpeed="max">
    <route edges="-57067 -57073" />
  </flow>
  <flow id="demo_20_morning_peak_03_west_right" type="demo_20_official_passenger" begin="2700" end="3600" number="13" departLane="best" departSpeed="max">
    <route edges="-57067 -57314" />
  </flow>
  <flow id="demo_20_morning_peak_03_north_left" type="demo_20_official_passenger" begin="2700" end="3600" number="24" departLane="best" departSpeed="max">
    <route edges="-49964 -57073" />
  </flow>
  <flow id="demo_20_morning_peak_03_north_through" type="demo_20_official_passenger" begin="2700" end="3600" number="47" departLane="best" departSpeed="max">
    <route edges="-49964 -57314" />
  </flow>
  <flow id="demo_20_morning_peak_03_north_right" type="demo_20_official_passenger" begin="2700" end="3600" number="24" departLane="best" departSpeed="max">
    <route edges="-49964 -56837" />
  </flow>
  <flow id="demo_20_morning_peak_03_south_left" type="demo_20_official_passenger" begin="2700" end="3600" number="37" departLane="best" departSpeed="max">
    <route edges="-57333 -56837" />
  </flow>
  <flow id="demo_20_morning_peak_03_south_through" type="demo_20_official_passenger" begin="2700" end="3600" number="75" departLane="best" departSpeed="max">
    <route edges="-57333 -56093" />
  </flow>
  <flow id="demo_20_morning_peak_03_south_right" type="demo_20_official_passenger" begin="2700" end="3600" number="37" departLane="best" departSpeed="max">
    <route edges="-57333 -57073" />
  </flow>
  <flow id="demo_20_morning_peak_04_east_left" type="demo_20_official_passenger" begin="3600" end="4500" number="16" departLane="best" departSpeed="max">
    <route edges="-56836 -57314" />
  </flow>
  <flow id="demo_20_morning_peak_04_east_through" type="demo_20_official_passenger" begin="3600" end="4500" number="32" departLane="best" departSpeed="max">
    <route edges="-56836 -56837" />
  </flow>
  <flow id="demo_20_morning_peak_04_east_right" type="demo_20_official_passenger" begin="3600" end="4500" number="16" departLane="best" departSpeed="max">
    <route edges="-56836 -56093" />
  </flow>
  <flow id="demo_20_morning_peak_04_west_left" type="demo_20_official_passenger" begin="3600" end="4500" number="12" departLane="best" departSpeed="max">
    <route edges="-57067 -56093" />
  </flow>
  <flow id="demo_20_morning_peak_04_west_through" type="demo_20_official_passenger" begin="3600" end="4500" number="23" departLane="best" departSpeed="max">
    <route edges="-57067 -57073" />
  </flow>
  <flow id="demo_20_morning_peak_04_west_right" type="demo_20_official_passenger" begin="3600" end="4500" number="12" departLane="best" departSpeed="max">
    <route edges="-57067 -57314" />
  </flow>
  <flow id="demo_20_morning_peak_04_north_left" type="demo_20_official_passenger" begin="3600" end="4500" number="23" departLane="best" departSpeed="max">
    <route edges="-49964 -57073" />
  </flow>
  <flow id="demo_20_morning_peak_04_north_through" type="demo_20_official_passenger" begin="3600" end="4500" number="45" departLane="best" departSpeed="max">
    <route edges="-49964 -57314" />
  </flow>
  <flow id="demo_20_morning_peak_04_north_right" type="demo_20_official_passenger" begin="3600" end="4500" number="23" departLane="best" departSpeed="max">
    <route edges="-49964 -56837" />
  </flow>
  <flow id="demo_20_morning_peak_04_south_left" type="demo_20_official_passenger" begin="3600" end="4500" number="35" departLane="best" departSpeed="max">
    <route edges="-57333 -56837" />
  </flow>
  <flow id="demo_20_morning_peak_04_south_through" type="demo_20_official_passenger" begin="3600" end="4500" number="70" departLane="best" departSpeed="max">
    <route edges="-57333 -56093" />
  </flow>
  <flow id="demo_20_morning_peak_04_south_right" type="demo_20_official_passenger" begin="3600" end="4500" number="35" departLane="best" departSpeed="max">
    <route edges="-57333 -57073" />
  </flow>
  <flow id="demo_20_morning_peak_05_east_left" type="demo_20_official_passenger" begin="4500" end="5400" number="12" departLane="best" departSpeed="max">
    <route edges="-56836 -57314" />
  </flow>
  <flow id="demo_20_morning_peak_05_east_through" type="demo_20_official_passenger" begin="4500" end="5400" number="26" departLane="best" departSpeed="max">
    <route edges="-56836 -56837" />
  </flow>
  <flow id="demo_20_morning_peak_05_east_right" type="demo_20_official_passenger" begin="4500" end="5400" number="12" departLane="best" departSpeed="max">
    <route edges="-56836 -56093" />
  </flow>
  <flow id="demo_20_morning_peak_05_west_left" type="demo_20_official_passenger" begin="4500" end="5400" number="10" departLane="best" departSpeed="max">
    <route edges="-57067 -56093" />
  </flow>
  <flow id="demo_20_morning_peak_05_west_through" type="demo_20_official_passenger" begin="4500" end="5400" number="18" departLane="best" departSpeed="max">
    <route edges="-57067 -57073" />
  </flow>
  <flow id="demo_20_morning_peak_05_west_right" type="demo_20_official_passenger" begin="4500" end="5400" number="10" departLane="best" departSpeed="max">
    <route edges="-57067 -57314" />
  </flow>
  <flow id="demo_20_morning_peak_05_north_left" type="demo_20_official_passenger" begin="4500" end="5400" number="20" departLane="best" departSpeed="max">
    <route edges="-49964 -57073" />
  </flow>
  <flow id="demo_20_morning_peak_05_north_through" type="demo_20_official_passenger" begin="4500" end="5400" number="42" departLane="best" departSpeed="max">
    <route edges="-49964 -57314" />
  </flow>
  <flow id="demo_20_morning_peak_05_north_right" type="demo_20_official_passenger" begin="4500" end="5400" number="20" departLane="best" departSpeed="max">
    <route edges="-49964 -56837" />
  </flow>
  <flow id="demo_20_morning_peak_05_south_left" type="demo_20_official_passenger" begin="4500" end="5400" number="32" departLane="best" departSpeed="max">
    <route edges="-57333 -56837" />
  </flow>
  <flow id="demo_20_morning_peak_05_south_through" type="demo_20_official_passenger" begin="4500" end="5400" number="65" departLane="best" departSpeed="max">
    <route edges="-57333 -56093" />
  </flow>
  <flow id="demo_20_morning_peak_05_south_right" type="demo_20_official_passenger" begin="4500" end="5400" number="32" departLane="best" departSpeed="max">
    <route edges="-57333 -57073" />
  </flow>
  <flow id="demo_20_morning_peak_06_east_left" type="demo_20_official_passenger" begin="5400" end="6300" number="15" departLane="best" departSpeed="max">
    <route edges="-56836 -57314" />
  </flow>
  <flow id="demo_20_morning_peak_06_east_through" type="demo_20_official_passenger" begin="5400" end="6300" number="31" departLane="best" departSpeed="max">
    <route edges="-56836 -56837" />
  </flow>
  <flow id="demo_20_morning_peak_06_east_right" type="demo_20_official_passenger" begin="5400" end="6300" number="15" departLane="best" departSpeed="max">
    <route edges="-56836 -56093" />
  </flow>
  <flow id="demo_20_morning_peak_06_west_left" type="demo_20_official_passenger" begin="5400" end="6300" number="10" departLane="best" departSpeed="max">
    <route edges="-57067 -56093" />
  </flow>
  <flow id="demo_20_morning_peak_06_west_through" type="demo_20_official_passenger" begin="5400" end="6300" number="19" departLane="best" departSpeed="max">
    <route edges="-57067 -57073" />
  </flow>
  <flow id="demo_20_morning_peak_06_west_right" type="demo_20_official_passenger" begin="5400" end="6300" number="10" departLane="best" departSpeed="max">
    <route edges="-57067 -57314" />
  </flow>
  <flow id="demo_20_morning_peak_06_north_left" type="demo_20_official_passenger" begin="5400" end="6300" number="20" departLane="best" departSpeed="max">
    <route edges="-49964 -57073" />
  </flow>
  <flow id="demo_20_morning_peak_06_north_through" type="demo_20_official_passenger" begin="5400" end="6300" number="39" departLane="best" departSpeed="max">
    <route edges="-49964 -57314" />
  </flow>
  <flow id="demo_20_morning_peak_06_north_right" type="demo_20_official_passenger" begin="5400" end="6300" number="20" departLane="best" departSpeed="max">
    <route edges="-49964 -56837" />
  </flow>
  <flow id="demo_20_morning_peak_06_south_left" type="demo_20_official_passenger" begin="5400" end="6300" number="31" departLane="best" departSpeed="max">
    <route edges="-57333 -56837" />
  </flow>
  <flow id="demo_20_morning_peak_06_south_through" type="demo_20_official_passenger" begin="5400" end="6300" number="62" departLane="best" departSpeed="max">
    <route edges="-57333 -56093" />
  </flow>
  <flow id="demo_20_morning_peak_06_south_right" type="demo_20_official_passenger" begin="5400" end="6300" number="31" departLane="best" departSpeed="max">
    <route edges="-57333 -57073" />
  </flow>
  <flow id="demo_20_morning_peak_07_east_left" type="demo_20_official_passenger" begin="6300" end="7200" number="13" departLane="best" departSpeed="max">
    <route edges="-56836 -57314" />
  </flow>
  <flow id="demo_20_morning_peak_07_east_through" type="demo_20_official_passenger" begin="6300" end="7200" number="25" departLane="best" departSpeed="max">
    <route edges="-56836 -56837" />
  </flow>
  <flow id="demo_20_morning_peak_07_east_right" type="demo_20_official_passenger" begin="6300" end="7200" number="13" departLane="best" departSpeed="max">
    <route edges="-56836 -56093" />
  </flow>
  <flow id="demo_20_morning_peak_07_west_left" type="demo_20_official_passenger" begin="6300" end="7200" number="10" departLane="best" departSpeed="max">
    <route edges="-57067 -56093" />
  </flow>
  <flow id="demo_20_morning_peak_07_west_through" type="demo_20_official_passenger" begin="6300" end="7200" number="21" departLane="best" departSpeed="max">
    <route edges="-57067 -57073" />
  </flow>
  <flow id="demo_20_morning_peak_07_west_right" type="demo_20_official_passenger" begin="6300" end="7200" number="10" departLane="best" departSpeed="max">
    <route edges="-57067 -57314" />
  </flow>
  <flow id="demo_20_morning_peak_07_north_left" type="demo_20_official_passenger" begin="6300" end="7200" number="20" departLane="best" departSpeed="max">
    <route edges="-49964 -57073" />
  </flow>
  <flow id="demo_20_morning_peak_07_north_through" type="demo_20_official_passenger" begin="6300" end="7200" number="41" departLane="best" departSpeed="max">
    <route edges="-49964 -57314" />
  </flow>
  <flow id="demo_20_morning_peak_07_north_right" type="demo_20_official_passenger" begin="6300" end="7200" number="20" departLane="best" departSpeed="max">
    <route edges="-49964 -56837" />
  </flow>
  <flow id="demo_20_morning_peak_07_south_left" type="demo_20_official_passenger" begin="6300" end="7200" number="32" departLane="best" departSpeed="max">
    <route edges="-57333 -56837" />
  </flow>
  <flow id="demo_20_morning_peak_07_south_through" type="demo_20_official_passenger" begin="6300" end="7200" number="65" departLane="best" departSpeed="max">
    <route edges="-57333 -56093" />
  </flow>
  <flow id="demo_20_morning_peak_07_south_right" type="demo_20_official_passenger" begin="6300" end="7200" number="32" departLane="best" departSpeed="max">
    <route edges="-57333 -57073" />
  </flow>
</routes>