<?xml version='1.0' encoding='utf-8'?>
<routes>
  <vType id="demo_9_official_passenger" vClass="passenger" emissionClass="HBEFA3/PC_G_EU4" accel="2.6" decel="4.5" sigma="0.5" length="5" width="1.8" minGap="2.5" maxSpeed="13.9" />
  <flow id="demo_9_evening_peak_00_east_left" type="demo_9_official_passenger" begin="0" end="900" number="23" departLane="best" departSpeed="max">
    <route edges="-56619 -56715" />
  </flow>
  <flow id="demo_9_evening_peak_00_east_through" type="demo_9_official_passenger" begin="0" end="900" number="10" departLane="best" departSpeed="max">
    <route edges="-56619 -56620" />
  </flow>
  <flow id="demo_9_evening_peak_00_east_right_route00" type="demo_9_official_passenger" begin="0" end="900" number="32" departLane="best" departSpeed="max">
    <route edges="-56619 -56370" />
  </flow>
  <flow id="demo_9_evening_peak_00_east_right_route01" type="demo_9_official_passenger" begin="0" end="900" number="16" departLane="best" departSpeed="max">
    <route edges="-56619 -56496" />
  </flow>
  <flow id="demo_9_evening_peak_00_west_left" type="demo_9_official_passenger" begin="0" end="900" number="27" departLane="best" departSpeed="max">
    <route edges="-50339 -56370" />
  </flow>
  <flow id="demo_9_evening_peak_00_west_through" type="demo_9_official_passenger" begin="0" end="900" number="9" departLane="best" departSpeed="max">
    <route edges="-50339 -50338" />
  </flow>
  <flow id="demo_9_evening_peak_00_west_right" type="demo_9_official_passenger" begin="0" end="900" number="36" departLane="best" departSpeed="max">
    <route edges="-50339 -56715" />
  </flow>
  <flow id="demo_9_evening_peak_00_north_left_route00" type="demo_9_official_passenger" begin="0" end="900" number="26" departLane="best" departSpeed="max">
    <route edges="-57214 -50338" />
  </flow>
  <flow id="demo_9_evening_peak_00_north_left_route01" type="demo_9_official_passenger" begin="0" end="900" number="14" departLane="best" departSpeed="max">
    <route edges="-57214 -56496" />
  </flow>
  <flow id="demo_9_evening_peak_00_north_through" type="demo_9_official_passenger" begin="0" end="900" number="55" departLane="best" departSpeed="max">
    <route edges="-57214 -56715" />
  </flow>
  <flow id="demo_9_evening_peak_00_north_right" type="demo_9_official_passenger" begin="0" end="900" number="11" departLane="best" departSpeed="max">
    <route edges="-57214 -56620" />
  </flow>
  <flow id="demo_9_evening_peak_00_south_left" type="demo_9_official_passenger" begin="0" end="900" number="29" departLane="best" departSpeed="max">
    <route edges="-56369 -56620" />
  </flow>
  <flow id="demo_9_evening_peak_00_south_through" type="demo_9_official_passenger" begin="0" end="900" number="42" departLane="best" departSpeed="max">
    <route edges="-56369 -56370" />
  </flow>
  <flow id="demo_9_evening_peak_00_south_right" type="demo_9_official_passenger" begin="0" end="900" number="31" departLane="best" departSpeed="max">
    <route edges="-56369 -50338" />
  </flow>
  <flow id="demo_9_evening_peak_00_northeast_left" type="demo_9_official_passenger" begin="0" end="900" number="34" departLane="best" departSpeed="max">
    <route edges="-50241 -50338" />
  </flow>
  <flow id="demo_9_evening_peak_00_northeast_right" type="demo_9_official_passenger" begin="0" end="900" number="36" departLane="best" departSpeed="max">
    <route edges="-50241 -56370" />
  </flow>
  <flow id="demo_9_evening_peak_01_east_left" type="demo_9_official_passenger" begin="900" end="1800" number="22" departLane="best" departSpeed="max">
    <route edges="-56619 -56715" />
  </flow>
  <flow id="demo_9_evening_peak_01_east_through" type="demo_9_official_passenger" begin="900" end="1800" number="9" departLane="best" departSpeed="max">
    <route edges="-56619 -56620" />
  </flow>
  <flow id="demo_9_evening_peak_01_east_right_route00" type="demo_9_official_passenger" begin="900" end="1800" number="31" departLane="best" departSpeed="max">
    <route edges="-56619 -56370" />
  </flow>
  <flow id="demo_9_evening_peak_01_east_right_route01" type="demo_9_official_passenger" begin="900" end="1800" number="15" departLane="best" departSpeed="max">
    <route edges="-56619 -56496" />
  </flow>
  <flow id="demo_9_evening_peak_01_west_left" type="demo_9_official_passenger" begin="900" end="1800" number="31" departLane="best" departSpeed="max">
    <route edges="-50339 -56370" />
  </flow>
  <flow id="demo_9_evening_peak_01_west_through" type="demo_9_official_passenger" begin="900" end="1800" number="10" departLane="best" departSpeed="max">
    <route edges="-50339 -50338" />
  </flow>
  <flow id="demo_9_evening_peak_01_west_right" type="demo_9_official_passenger" begin="900" end="1800" number="40" departLane="best" departSpeed="max">
    <route edges="-50339 -56715" />
  </flow>
  <flow id="demo_9_evening_peak_01_north_left_route00" type="demo_9_official_passenger" begin="900" end="1800" number="25" departLane="best" departSpeed="max">
    <route edges="-57214 -50338" />
  </flow>
  <flow id="demo_9_evening_peak_01_north_left_route01" type="demo_9_official_passenger" begin="900" end="1800" number="13" departLane="best" departSpeed="max">
    <route edges="-57214 -56496" />
  </flow>
  <flow id="demo_9_evening_peak_01_north_through" type="demo_9_official_passenger" begin="900" end="1800" number="53" departLane="best" departSpeed="max">
    <route edges="-57214 -56715" />
  </flow>
  <flow id="demo_9_evening_peak_01_north_right" type="demo_9_official_passenger" begin="900" end="1800" number="10" departLane="best" departSpeed="max">
    <route edges="-57214 -56620" />
  </flow>
  <flow id="demo_9_evening_peak_01_south_left" type="demo_9_official_passenger" begin="900" end="1800" number="31" departLane="best" departSpeed="max">
    <route edges="-56369 -56620" />
  </flow>
  <flow id="demo_9_evening_peak_01_south_through" type="demo_9_official_passenger" begin="900" end="1800" number="47" departLane="best" departSpeed="max">
    <route edges="-56369 -56370" />
  </flow>
  <flow id="demo_9_evening_peak_01_south_right" type="demo_9_official_passenger" begin="900" end="1800" number="34" departLane="best" departSpeed="max">
    <route edges="-56369 -50338" />
  </flow>
  <flow id="demo_9_evening_peak_01_northeast_left" type="demo_9_official_passenger" begin="900" end="1800" number="35" departLane="best" departSpeed="max">
    <route edges="-50241 -50338" />
  </flow>
  <flow id="demo_9_evening_peak_01_northeast_right" type="demo_9_official_passenger" begin="900" end="1800" number="37" departLane="best" departSpeed="max">
    <route edges="-50241 -56370" />
  </flow>
  <flow id="demo_9_evening_peak_02_east_left" type="demo_9_official_passenger" begin="1800" end="2700" number="24" departLane="best" departSpeed="max">
    <route edges="-56619 -56715" />
  </flow>
  <flow id="demo_9_evening_peak_02_east_through" type="demo_9_official_passenger" begin="1800" end="2700" number="10" departLane="best" departSpeed="max">
    <route edges="-56619 -56620" />
  </flow>
  <flow id="demo_9_evening_peak_02_east_right_route00" type="demo_9_official_passenger" begin="1800" end="2700" number="35" departLane="best" departSpeed="max">
    <route edges="-56619 -56370" />
  </flow>
  <flow id="demo_9_evening_peak_02_east_right_route01" type="demo_9_official_passenger" begin="1800" end="2700" number="18" departLane="best" departSpeed="max">
    <route edges="-56619 -56496" />
  </flow>
  <flow id="demo_9_evening_peak_02_west_left" type="demo_9_official_passenger" begin="1800" end="2700" number="29" departLane="best" departSpeed="max">
    <route edges="-50339 -56370" />
  </flow>
  <flow id="demo_9_evening_peak_02_west_through" type="demo_9_official_passenger" begin="1800" end="2700" number="9" departLane="best" departSpeed="max">
    <route edges="-50339 -50338" />
  </flow>
  <flow id="demo_9_evening_peak_02_west_right" type="demo_9_official_passenger" begin="1800" end="2700" number="38" departLane="best" departSpeed="max">
    <route edges="-50339 -56715" />
  </flow>
  <flow id="demo_9_evening_peak_02_north_left_route00" type="demo_9_official_passenger" begin="1800" end="2700" number="28" departLane="best" departSpeed="max">
    <route edges="-57214 -50338" />
  </flow>
  <flow id="demo_9_evening_peak_02_north_left_route01" type="demo_9_official_passenger" begin="1800" end="2700" number="14" departLane="best" departSpeed="max">
    <route edges="-57214 -56496" />
  </flow>
  <flow id="demo_9_evening_peak_02_north_through" type="demo_9_official_passenger" begin="1800" end="2700" number="57" departLane="best" departSpeed="max">
    <route edges="-57214 -56715" />
  </flow>
  <flow id="demo_9_evening_peak_02_north_right" type="demo_9_official_passenger" begin="1800" end="2700" number="11" departLane="best" departSpeed="max">
    <route edges="-57214 -56620" />
  </flow>
  <flow id="demo_9_evening_peak_02_south_left" type="demo_9_official_passenger" begin="1800" end="2700" number="30" departLane="best" departSpeed="max">
    <route edges="-56369 -56620" />
  </flow>
  <flow id="demo_9_evening_peak_02_south_through" type="demo_9_official_passenger" begin="1800" end="2700" number="44" departLane="best" departSpeed="max">
    <route edges="-56369 -56370" />
  </flow>
  <flow id="demo_9_evening_peak_02_south_right" type="demo_9_official_passenger" begin="1800" end="2700" number="32" departLane="best" departSpeed="max">
    <route edges="-56369 -50338" />
  </flow>
  <flow id="demo_9_evening_peak_02_northeast_left" type="demo_9_official_passenger" begin="1800" end="2700" number="34" departLane="best" departSpeed="max">
    <route edges="-50241 -50338" />
  </flow>
  <flow id="demo_9_evening_peak_02_northeast_right" type="demo_9_official_passenger" begin="1800" end="2700" number="36" departLane="best" departSpeed="max">
    <route edges="-50241 -56370" />
  </flow>
  <flow id="demo_9_evening_peak_03_east_left" type="demo_9_official_passenger" begin="2700" end="3600" number="22" departLane="best" departSpeed="max">
    <route edges="-56619 -56715" />
  </flow>
  <flow id="demo_9_evening_peak_03_east_through" type="demo_9_official_passenger" begin="2700" end="3600" number="9" departLane="best" departSpeed="max">
    <route edges="-56619 -56620" />
  </flow>
  <flow id="demo_9_evening_peak_03_east_right_route00" type="demo_9_official_passenger" begin="2700" end="3600" number="31" departLane="best" departSpeed="max">
    <route edges="-56619 -56370" />
  </flow>
  <flow id="demo_9_evening_peak_03_east_right_route01" type="demo_9_official_passenger" begin="2700" end="3600" number="15" departLane="best" departSpeed="max">
    <route edges="-56619 -56496" />
  </flow>
  <flow id="demo_9_evening_peak_03_west_left" type="demo_9_official_passenger" begin="2700" end="3600" number="28" departLane="best" departSpeed="max">
    <route edges="-50339 -56370" />
  </flow>
  <flow id="demo_9_evening_peak_03_west_through" type="demo_9_official_passenger" begin="2700" end="3600" number="9" departLane="best" departSpeed="max">
    <route edges="-50339 -50338" />
  </flow>
  <flow id="demo_9_evening_peak_03_west_right" type="demo_9_official_passenger" begin="2700" end="3600" number="37" departLane="best" departSpeed="max">
    <route edges="-50339 -56715" />
  </flow>
  <flow id="demo_9_evening_peak_03_north_left_route00" type="demo_9_official_passenger" begin="2700" end="3600" number="26" departLane="best" departSpeed="max">
    <route edges="-57214 -50338" />
  </flow>
  <flow id="demo_9_evening_peak_03_north_left_route01" type="demo_9_official_passenger" begin="2700" end="3600" number="14" departLane="best" departSpeed="max">
    <route edges="-57214 -56496" />
  </flow>
  <flow id="demo_9_evening_peak_03_north_through" type="demo_9_official_passenger" begin="2700" end="3600" number="55" departLane="best" departSpeed="max">
    <route edges="-57214 -56715" />
  </flow>
  <flow id="demo_9_evening_peak_03_north_right" type="demo_9_official_passenger" begin="2700" end="3600" number="10" departLane="best" departSpeed="max">
    <route edges="-57214 -56620" />
  </flow>
  <flow id="demo_9_evening_peak_03_south_left" type="demo_9_official_passenger" begin="2700" end="3600" number="32" departLane="best" departSpeed="max">
    <route edges="-56369 -56620" />
  </flow>
  <flow id="demo_9_evening_peak_03_south_through" type="demo_9_official_passenger" begin="2700" end="3600" number="48" departLane="best" departSpeed="max">
    <route edges="-56369 -56370" />
  </flow>
  <flow id="demo_9_evening_peak_03_south_right" type="demo_9_official_passenger" begin="2700" end="3600" number="34" departLane="best" departSpeed="max">
    <route edges="-56369 -50338" />
  </flow>
  <flow id="demo_9_evening_peak_03_northeast_left" type="demo_9_official_passenger" begin="2700" end="3600" number="32" departLane="best" departSpeed="max">
    <route edges="-50241 -50338" />
  </flow>
  <flow id="demo_9_evening_peak_03_northeast_right" type="demo_9_official_passenger" begin="2700" end="3600" number="34" departLane="best" departSpeed="max">
    <route edges="-50241 -56370" />
  </flow>
  <flow id="demo_9_evening_peak_04_east_left" type="demo_9_official_passenger" begin="3600" end="4500" number="22" departLane="best" departSpeed="max">
    <route edges="-56619 -56715" />
  </flow>
  <flow id="demo_9_evening_peak_04_east_through" type="demo_9_official_passenger" begin="3600" end="4500" number="9" departLane="best" departSpeed="max">
    <route edges="-56619 -56620" />
  </flow>
  <flow id="demo_9_evening_peak_04_east_right_route00" type="demo_9_official_passenger" begin="3600" end="4500" number="32" departLane="best" departSpeed="max">
    <route edges="-56619 -56370" />
  </flow>
  <flow id="demo_9_evening_peak_04_east_right_route01" type="demo_9_official_passenger" begin="3600" end="4500" number="16" departLane="best" departSpeed="max">
    <route edges="-56619 -56496" />
  </flow>
  <flow id="demo_9_evening_peak_04_west_left" type="demo_9_official_passenger" begin="3600" end="4500" number="26" departLane="best" departSpeed="max">
    <route edges="-50339 -56370" />
  </flow>
  <flow id="demo_9_evening_peak_04_west_through" type="demo_9_official_passenger" begin="3600" end="4500" number="8" departLane="best" departSpeed="max">
    <route edges="-50339 -50338" />
  </flow>
  <flow id="demo_9_evening_peak_04_west_right" type="demo_9_official_passenger" begin="3600" end="4500" number="35" departLane="best" departSpeed="max">
    <route edges="-50339 -56715" />
  </flow>
  <flow id="demo_9_evening_peak_04_north_left_route00" type="demo_9_official_passenger" begin="3600" end="4500" number="26" departLane="best" departSpeed="max">
    <route edges="-57214 -50338" />
  </flow>
  <flow id="demo_9_evening_peak_04_north_left_route01" type="demo_9_official_passenger" begin="3600" end="4500" number="13" departLane="best" departSpeed="max">
    <route edges="-57214 -56496" />
  </flow>
  <flow id="demo_9_evening_peak_04_north_through" type="demo_9_official_passenger" begin="3600" end="4500" number="54" departLane="best" departSpeed="max">
    <route edges="-57214 -56715" />
  </flow>
  <flow id="demo_9_evening_peak_04_north_right" type="demo_9_official_passenger" begin="3600" end="4500" number="10" departLane="best" departSpeed="max">
    <route edges="-57214 -56620" />
  </flow>
  <flow id="demo_9_evening_peak_04_south_left" type="demo_9_official_passenger" begin="3600" end="4500" number="28" departLane="best" departSpeed="max">
    <route edges="-56369 -56620" />
  </flow>
  <flow id="demo_9_evening_peak_04_south_through" type="demo_9_official_passenger" begin="3600" end="4500" number="43" departLane="best" departSpeed="max">
    <route edges="-56369 -56370" />
  </flow>
  <flow id="demo_9_evening_peak_04_south_right" type="demo_9_official_passenger" begin="3600" end="4500" number="30" departLane="best" departSpeed="max">
    <route edges="-56369 -50338" />
  </flow>
  <flow id="demo_9_evening_peak_04_northeast_left" type="demo_9_official_passenger" begin="3600" end="4500" number="31" departLane="best" departSpeed="max">
    <route edges="-50241 -50338" />
  </flow>
  <flow id="demo_9_evening_peak_04_northeast_right" type="demo_9_official_passenger" begin="3600" end="4500" number="33" departLane="best" departSpeed="max">
    <route edges="-50241 -56370" />
  </flow>
  <flow id="demo_9_evening_peak_05_east_left" type="demo_9_official_passenger" begin="4500" end="5400" number="20" departLane="best" departSpeed="max">
    <route edges="-56619 -56715" />
  </flow>
  <flow id="demo_9_evening_peak_05_east_through" type="demo_9_official_passenger" begin="4500" end="5400" number="9" departLane="best" departSpeed="max">
    <route edges="-56619 -56620" />
  </flow>
  <flow id="demo_9_evening_peak_05_east_right_route00" type="demo_9_official_passenger" begin="4500" end="5400" number="29" departLane="best" departSpeed="max">
    <route edges="-56619 -56370" />
  </flow>
  <flow id="demo_9_evening_peak_05_east_right_route01" type="demo_9_official_passenger" begin="4500" end="5400" number="14" departLane="best" departSpeed="max">
    <route edges="-56619 -56496" />
  </flow>
  <flow id="demo_9_evening_peak_05_west_left" type="demo_9_official_passenger" begin="4500" end="5400" number="27" departLane="best" departSpeed="max">
    <route edges="-50339 -56370" />
  </flow>
  <flow id="demo_9_evening_peak_05_west_through" type="demo_9_official_passenger" begin="4500" end="5400" number="9" departLane="best" departSpeed="max">
    <route edges="-50339 -50338" />
  </flow>
  <flow id="demo_9_evening_peak_05_west_right" type="demo_9_official_passenger" begin="4500" end="5400" number="36" departLane="best" departSpeed="max">
    <route edges="-50339 -56715" />
  </flow>
  <flow id="demo_9_evening_peak_05_north_left_route00" type="demo_9_official_passenger" begin="4500" end="5400" number="24" departLane="best" departSpeed="max">
    <route edges="-57214 -50338" />
  </flow>
  <flow id="demo_9_evening_peak_05_north_left_route01" type="demo_9_official_passenger" begin="4500" end="5400" number="12" departLane="best" departSpeed="max">
    <route edges="-57214 -56496" />
  </flow>
  <flow id="demo_9_evening_peak_05_north_through" type="demo_9_official_passenger" begin="4500" end="5400" number="49" departLane="best" departSpeed="max">
    <route edges="-57214 -56715" />
  </flow>
  <flow id="demo_9_evening_peak_05_north_right" type="demo_9_official_passenger" begin="4500" end="5400" number="10" departLane="best" departSpeed="max">
    <route edges="-57214 -56620" />
  </flow>
  <flow id="demo_9_evening_peak_05_south_left" type="demo_9_official_passenger" begin="4500" end="5400" number="29" departLane="best" departSpeed="max">
    <route edges="-56369 -56620" />
  </flow>
  <flow id="demo_9_evening_peak_05_south_through" type="demo_9_official_passenger" begin="4500" end="5400" number="43" departLane="best" departSpeed="max">
    <route edges="-56369 -56370" />
  </flow>
  <flow id="demo_9_evening_peak_05_south_right" type="demo_9_official_passenger" begin="4500" end="5400" number="31" departLane="best" departSpeed="max">
    <route edges="-56369 -50338" />
  </flow>
  <flow id="demo_9_evening_peak_05_northeast_left" type="demo_9_official_passenger" begin="4500" end="5400" number="31" departLane="best" departSpeed="max">
    <route edges="-50241 -50338" />
  </flow>
  <flow id="demo_9_evening_peak_05_northeast_right" type="demo_9_official_passenger" begin="4500" end="5400" number="34" departLane="best" departSpeed="max">
    <route edges="-50241 -56370" />
  </flow>
  <flow id="demo_9_evening_peak_06_east_left" type="demo_9_official_passenger" begin="5400" end="6300" number="21" departLane="best" departSpeed="max">
    <route edges="-56619 -56715" />
  </flow>
  <flow id="demo_9_evening_peak_06_east_through" type="demo_9_official_passenger" begin="5400" end="6300" number="9" departLane="best" departSpeed="max">
    <route edges="-56619 -56620" />
  </flow>
  <flow id="demo_9_evening_peak_06_east_right_route00" type="demo_9_official_passenger" begin="5400" end="6300" number="31" departLane="best" departSpeed="max">
    <route edges="-56619 -56370" />
  </flow>
  <flow id="demo_9_evening_peak_06_east_right_route01" type="demo_9_official_passenger" begin="5400" end="6300" number="15" departLane="best" departSpeed="max">
    <route edges="-56619 -56496" />
  </flow>
  <flow id="demo_9_evening_peak_06_west_left" type="demo_9_official_passenger" begin="5400" end="6300" number="25" departLane="best" departSpeed="max">
    <route edges="-50339 -56370" />
  </flow>
  <flow id="demo_9_evening_peak_06_west_through" type="demo_9_official_passenger" begin="5400" end="6300" number="8" departLane="best" departSpeed="max">
    <route edges="-50339 -50338" />
  </flow>
  <flow id="demo_9_evening_peak_06_west_right" type="demo_9_official_passenger" begin="5400" end="6300" number="32" departLane="best" departSpeed="max">
    <route edges="-50339 -56715" />
  </flow>
  <flow id="demo_9_evening_peak_06_north_left_route00" type="demo_9_official_passenger" begin="5400" end="6300" number="24" departLane="best" departSpeed="max">
    <route edges="-57214 -50338" />
  </flow>
  <flow id="demo_9_evening_peak_06_north_left_route01" type="demo_9_official_passenger" begin="5400" end="6300" number="12" departLane="best" departSpeed="max">
    <route edges="-57214 -56496" />
  </flow>
  <flow id="demo_9_evening_peak_06_north_through" type="demo_9_official_passenger" begin="5400" end="6300" number="50" departLane="best" departSpeed="max">
    <route edges="-57214 -56715" />
  </flow>
  <flow id="demo_9_evening_peak_06_north_right" type="demo_9_official_passenger" begin="5400" end="6300" number="10" departLane="best" departSpeed="max">
    <route edges="-57214 -56620" />
  </flow>
  <flow id="demo_9_evening_peak_06_south_left" type="demo_9_official_passenger" begin="5400" end="6300" number="27" departLane="best" departSpeed="max">
    <route edges="-56369 -56620" />
  </flow>
  <flow id="demo_9_evening_peak_06_south_through" type="demo_9_official_passenger" begin="5400" end="6300" number="40" departLane="best" departSpeed="max">
    <route edges="-56369 -56370" />
  </flow>
  <flow id="demo_9_evening_peak_06_south_right" type="demo_9_official_passenger" begin="5400" end="6300" number="29" departLane="best" departSpeed="max">
    <route edges="-56369 -50338" />
  </flow>
  <flow id="demo_9_evening_peak_06_northeast_left" type="demo_9_official_passenger" begin="5400" end="6300" number="30" departLane="best" departSpeed="max">
    <route edges="-50241 -50338" />
  </flow>
  <flow id="demo_9_evening_peak_06_northeast_right" type="demo_9_official_passenger" begin="5400" end="6300" number="33" departLane="best" departSpeed="max">
    <route edges="-50241 -56370" />
  </flow>
  <flow id="demo_9_evening_peak_07_east_left" type="demo_9_official_passenger" begin="6300" end="7200" number="18" departLane="best" departSpeed="max">
    <route edges="-56619 -56715" />
  </flow>
  <flow id="demo_9_evening_peak_07_east_through" type="demo_9_official_passenger" begin="6300" end="7200" number="8" departLane="best" departSpeed="max">
    <route edges="-56619 -56620" />
  </flow>
  <flow id="demo_9_evening_peak_07_east_right_route00" type="demo_9_official_passenger" begin="6300" end="7200" number="25" departLane="best" departSpeed="max">
    <route edges="-56619 -56370" />
  </flow>
  <flow id="demo_9_evening_peak_07_east_right_route01" type="demo_9_official_passenger" begin="6300" end="7200" number="13" departLane="best" departSpeed="max">
    <route edges="-56619 -56496" />
  </flow>
  <flow id="demo_9_evening_peak_07_west_left" type="demo_9_official_passenger" begin="6300" end="7200" number="25" departLane="best" departSpeed="max">
    <route edges="-50339 -56370" />
  </flow>
  <flow id="demo_9_evening_peak_07_west_through" type="demo_9_official_passenger" begin="6300" end="7200" number="8" departLane="best" departSpeed="max">
    <route edges="-50339 -50338" />
  </flow>
  <flow id="demo_9_evening_peak_07_west_right" type="demo_9_official_passenger" begin="6300" end="7200" number="32" departLane="best" departSpeed="max">
    <route edges="-50339 -56715" />
  </flow>
  <flow id="demo_9_evening_peak_07_north_left_route00" type="demo_9_official_passenger" begin="6300" end="7200" number="22" departLane="best" departSpeed="max">
    <route edges="-57214 -50338" />
  </flow>
  <flow id="demo_9_evening_peak_07_north_left_route01" type="demo_9_official_passenger" begin="6300" end="7200" number="11" departLane="best" departSpeed="max">
    <route edges="-57214 -56496" />
  </flow>
  <flow id="demo_9_evening_peak_07_north_through" type="demo_9_official_passenger" begin="6300" end="7200" number="46" departLane="best" departSpeed="max">
    <route edges="-57214 -56715" />
  </flow>
  <flow id="demo_9_evening_peak_07_north_right" type="demo_9_official_passenger" begin="6300" end="7200" number="9" departLane="best" departSpeed="max">
    <route edges="-57214 -56620" />
  </flow>
  <flow id="demo_9_evening_peak_07_south_left" type="demo_9_official_passenger" begin="6300" end="7200" number="27" departLane="best" departSpeed="max">
    <route edges="-56369 -56620" />
  </flow>
  <flow id="demo_9_evening_peak_07_south_through" type="demo_9_official_passenger" begin="6300" end="7200" number="41" departLane="best" departSpeed="max">
    <route edges="-56369 -56370" />
  </flow>
  <flow id="demo_9_evening_peak_07_south_right" type="demo_9_official_passenger" begin="6300" end="7200" number="29" departLane="best" departSpeed="max">
    <route edges="-56369 -50338" />
  </flow>
  <flow id="demo_9_evening_peak_07_northeast_left" type="demo_9_official_passenger" begin="6300" end="7200" number="26" departLane="best" departSpeed="max">
    <route edges="-50241 -50338" />
  </flow>
  <flow id="demo_9_evening_peak_07_northeast_right" type="demo_9_official_passenger" begin="6300" end="7200" number="29" departLane="best" departSpeed="max">
    <route edges="-50241 -56370" />
  </flow>
</routes>