<?xml version='1.0' encoding='utf-8'?>
<additional>
  <tlLogic id="3637" type="static" programID="demo_20_off_peak" offset="0">
    <phase duration="33" state="grrrrrrgGGGggrrgGGGgg" name="p1_green" />
    <phase duration="3" state="grrrrrrgyyyygrrgyyyyy" name="p1_yellow" />
    <phase duration="6" state="grrrrrrgrrrggrrgrrrgg" name="p2_green" />
    <phase duration="3" state="grrrrrrgrrrygrrgrrryy" name="p2_yellow" />
    <phase duration="33" state="gGGgggggrrrrgGggrrrrr" name="p3_green" />
    <phase duration="3" state="gyyyyyygrrrrgyygrrrrr" name="p3_yellow" />
    <phase duration="6" state="grrgggggrrrrgrggrrrrr" name="p4_green" />
    <phase duration="3" state="grryyyygrrrrgrygrrrrr" name="p4_yellow" />
  </tlLogic>
</additional>