<?xml version='1.0' encoding='utf-8'?>
<routes>
  <vType id="demo_5_official_passenger" vClass="passenger" emissionClass="HBEFA3/PC_G_EU4" accel="2.6" decel="4.5" sigma="0.5" length="5" width="1.8" minGap="2.5" maxSpeed="13.9" />
  <flow id="demo_5_evening_peak_00_east_left" type="demo_5_official_passenger" begin="0" end="900" number="71" departLane="best" departSpeed="max">
    <route edges="-50182 -50820" />
  </flow>
  <flow id="demo_5_evening_peak_00_east_through" type="demo_5_official_passenger" begin="0" end="900" number="70" departLane="best" departSpeed="max">
    <route edges="-50182 -50172" />
  </flow>
  <flow id="demo_5_evening_peak_00_west_through" type="demo_5_official_passenger" begin="0" end="900" number="130" departLane="best" departSpeed="max">
    <route edges="-56392 -56402" />
  </flow>
  <flow id="demo_5_evening_peak_00_west_right" type="demo_5_official_passenger" begin="0" end="900" number="56" departLane="best" departSpeed="max">
    <route edges="-56392 -50820" />
  </flow>
  <flow id="demo_5_evening_peak_00_south_left" type="demo_5_official_passenger" begin="0" end="900" number="70" departLane="best" departSpeed="max">
    <route edges="-57586 -50172" />
  </flow>
  <flow id="demo_5_evening_peak_00_south_right" type="demo_5_official_passenger" begin="0" end="900" number="105" departLane="best" departSpeed="max">
    <route edges="-57586 -56402" />
  </flow>
  <flow id="demo_5_evening_peak_01_east_left" type="demo_5_official_passenger" begin="900" end="1800" number="70" departLane="best" departSpeed="max">
    <route edges="-50182 -50820" />
  </flow>
  <flow id="demo_5_evening_peak_01_east_through" type="demo_5_official_passenger" begin="900" end="1800" number="72" departLane="best" departSpeed="max">
    <route edges="-50182 -50172" />
  </flow>
  <flow id="demo_5_evening_peak_01_west_through" type="demo_5_official_passenger" begin="900" end="1800" number="132" departLane="best" departSpeed="max">
    <route edges="-56392 -56402" />
  </flow>
  <flow id="demo_5_evening_peak_01_west_right" type="demo_5_official_passenger" begin="900" end="1800" number="55" departLane="best" departSpeed="max">
    <route edges="-56392 -50820" />
  </flow>
  <flow id="demo_5_evening_peak_01_south_left" type="demo_5_official_passenger" begin="900" end="1800" number="71" departLane="best" departSpeed="max">
    <route edges="-57586 -50172" />
  </flow>
  <flow id="demo_5_evening_peak_01_south_right" type="demo_5_official_passenger" begin="900" end="1800" number="106" departLane="best" departSpeed="max">
    <route edges="-57586 -56402" />
  </flow>
  <flow id="demo_5_evening_peak_02_east_left" type="demo_5_official_passenger" begin="1800" end="2700" number="72" departLane="best" departSpeed="max">
    <route edges="-50182 -50820" />
  </flow>
  <flow id="demo_5_evening_peak_02_east_through" type="demo_5_official_passenger" begin="1800" end="2700" number="69" departLane="best" departSpeed="max">
    <route edges="-50182 -50172" />
  </flow>
  <flow id="demo_5_evening_peak_02_west_through" type="demo_5_official_passenger" begin="1800" end="2700" number="129" departLane="best" departSpeed="max">
    <route edges="-56392 -56402" />
  </flow>
  <flow id="demo_5_evening_peak_02_west_right" type="demo_5_official_passenger" begin="1800" end="2700" number="57" departLane="best" departSpeed="max">
    <route edges="-56392 -50820" />
  </flow>
  <flow id="demo_5_evening_peak_02_south_left" type="demo_5_official_passenger" begin="1800" end="2700" number="69" departLane="best" departSpeed="max">
    <route edges="-57586 -50172" />
  </flow>
  <flow id="demo_5_evening_peak_02_south_right" type="demo_5_official_passenger" begin="1800" end="2700" number="104" departLane="best" departSpeed="max">
    <route edges="-57586 -56402" />
  </flow>
  <flow id="demo_5_evening_peak_03_east_left" type="demo_5_official_passenger" begin="2700" end="3600" number="69" departLane="best" departSpeed="max">
    <route edges="-50182 -50820" />
  </flow>
  <flow id="demo_5_evening_peak_03_east_through" type="demo_5_official_passenger" begin="2700" end="3600" number="71" departLane="best" departSpeed="max">
    <route edges="-50182 -50172" />
  </flow>
  <flow id="demo_5_evening_peak_03_west_through" type="demo_5_official_passenger" begin="2700" end="3600" number="131" departLane="best" departSpeed="max">
    <route edges="-56392 -56402" />
  </flow>
  <flow id="demo_5_evening_peak_03_west_right" type="demo_5_official_passenger" begin="2700" end="3600" number="54" departLane="best" departSpeed="max">
    <route edges="-56392 -50820" />
  </flow>
  <flow id="demo_5_evening_peak_03_south_left" type="demo_5_official_passenger" begin="2700" end="3600" number="72" departLane="best" departSpeed="max">
    <route edges="-57586 -50172" />
  </flow>
  <flow id="demo_5_evening_peak_03_south_right" type="demo_5_official_passenger" begin="2700" end="3600" number="107" departLane="best" departSpeed="max">
    <route edges="-57586 -56402" />
  </flow>
  <flow id="demo_5_evening_peak_04_east_left" type="demo_5_official_passenger" begin="3600" end="4500" number="71" departLane="best" departSpeed="max">
    <route edges="-50182 -50820" />
  </flow>
  <flow id="demo_5_evening_peak_04_east_through" type="demo_5_official_passenger" begin="3600" end="4500" number="73" departLane="best" departSpeed="max">
    <route edges="-50182 -50172" />
  </flow>
  <flow id="demo_5_evening_peak_04_west_through" type="demo_5_official_passenger" begin="3600" end="4500" number="133" departLane="best" departSpeed="max">
    <route edges="-56392 -56402" />
  </flow>
  <flow id="demo_5_evening_peak_04_west_right" type="demo_5_official_passenger" begin="3600" end="4500" number="56" departLane="best" departSpeed="max">
    <route edges="-56392 -50820" />
  </flow>
  <flow id="demo_5_evening_peak_04_south_left" type="demo_5_official_passenger" begin="3600" end="4500" number="70" departLane="best" departSpeed="max">
    <route edges="-57586 -50172" />
  </flow>
  <flow id="demo_5_evening_peak_04_south_right" type="demo_5_official_passenger" begin="3600" end="4500" number="106" departLane="best" departSpeed="max">
    <route edges="-57586 -56402" />
  </flow>
  <flow id="demo_5_evening_peak_05_east_left" type="demo_5_official_passenger" begin="4500" end="5400" number="73" departLane="best" departSpeed="max">
    <route edges="-50182 -50820" />
  </flow>
  <flow id="demo_5_evening_peak_05_east_through" type="demo_5_official_passenger" begin="4500" end="5400" number="70" departLane="best" departSpeed="max">
    <route edges="-50182 -50172" />
  </flow>
  <flow id="demo_5_evening_peak_05_west_through" type="demo_5_official_passenger" begin="4500" end="5400" number="128" departLane="best" departSpeed="max">
    <route edges="-56392 -56402" />
  </flow>
  <flow id="demo_5_evening_peak_05_west_right" type="demo_5_official_passenger" begin="4500" end="5400" number="55" departLane="best" departSpeed="max">
    <route edges="-56392 -50820" />
  </flow>
  <flow id="demo_5_evening_peak_05_south_left" type="demo_5_official_passenger" begin="4500" end="5400" number="71" departLane="best" departSpeed="max">
    <route edges="-57586 -50172" />
  </flow>
  <flow id="demo_5_evening_peak_05_south_right" type="demo_5_official_passenger" begin="4500" end="5400" number="103" departLane="best" departSpeed="max">
    <route edges="-57586 -56402" />
  </flow>
  <flow id="demo_5_evening_peak_06_east_left" type="demo_5_official_passenger" begin="5400" end="6300" number="70" departLane="best" departSpeed="max">
    <route edges="-50182 -50820" />
  </flow>
  <flow id="demo_5_evening_peak_06_east_through" type="demo_5_official_passenger" begin="5400" end="6300" number="71" departLane="best" departSpeed="max">
    <route edges="-50182 -50172" />
  </flow>
  <flow id="demo_5_evening_peak_06_west_through" type="demo_5_official_passenger" begin="5400" end="6300" number="130" departLane="best" departSpeed="max">
    <route edges="-56392 -56402" />
  </flow>
  <flow id="demo_5_evening_peak_06_west_right" type="demo_5_official_passenger" begin="5400" end="6300" number="58" departLane="best" departSpeed="max">
    <route edges="-56392 -50820" />
  </flow>
  <flow id="demo_5_evening_peak_06_south_left" type="demo_5_official_passenger" begin="5400" end="6300" number="68" departLane="best" departSpeed="max">
    <route edges="-57586 -50172" />
  </flow>
  <flow id="demo_5_evening_peak_06_south_right" type="demo_5_official_passenger" begin="5400" end="6300" number="105" departLane="best" departSpeed="max">
    <route edges="-57586 -56402" />
  </flow>
  <flow id="demo_5_evening_peak_07_east_left" type="demo_5_official_passenger" begin="6300" end="7200" number="72" departLane="best" departSpeed="max">
    <route edges="-50182 -50820" />
  </flow>
  <flow id="demo_5_evening_peak_07_east_through" type="demo_5_official_passenger" begin="6300" end="7200" number="72" departLane="best" departSpeed="max">
    <route edges="-50182 -50172" />
  </flow>
  <flow id="demo_5_evening_peak_07_west_through" type="demo_5_official_passenger" begin="6300" end="7200" number="130" departLane="best" departSpeed="max">
    <route edges="-56392 -56402" />
  </flow>
  <flow id="demo_5_evening_peak_07_west_right" type="demo_5_official_passenger" begin="6300" end="7200" number="56" departLane="best" departSpeed="max">
    <route edges="-56392 -50820" />
  </flow>
  <flow id="demo_5_evening_peak_07_south_left" type="demo_5_official_passenger" begin="6300" end="7200" number="74" departLane="best" departSpeed="max">
    <route edges="-57586 -50172" />
  </flow>
  <flow id="demo_5_evening_peak_07_south_right" type="demo_5_official_passenger" begin="6300" end="7200" number="111" departLane="best" departSpeed="max">
    <route edges="-57586 -56402" />
  </flow>
</routes>