<?xml version='1.0' encoding='utf-8'?>
<additional>
  <tlLogic id="4306" type="static" programID="demo_11_off_peak" offset="0">
    <phase duration="40" state="ggrgrrrrggGGGrrgggrrrrrggGGGrr" name="p1_green" />
    <phase duration="3" state="ggrgrrrrggyyyrrgggrrrrrggyyyrr" name="p1_yellow" />
    <phase duration="2" state="ggrgrrrrggrrrrrgggrrrrrggrrrrr" name="p1_clearance" />
    <phase duration="20" state="ggrgrrrrggrrrGGgggrrrrrggrrrGG" name="p2_green" />
    <phase duration="3" state="ggrgrrrrggrrryygggrrrrrggrrryy" name="p2_yellow" />
    <phase duration="2" state="ggrgrrrrggrrrrrgggrrrrrggrrrrr" name="p2_clearance" />
    <phase duration="30" state="ggGgGrrrggrrrrrgggGGrrrggrrrrr" name="p3_green" />
    <phase duration="3" state="ggygyrrrggrrrrrgggyyrrrggrrrrr" name="p3_yellow" />
    <phase duration="2" state="ggrgrrrrggrrrrrgggrrrrrggrrrrr" name="p3_clearance" />
    <phase duration="20" state="ggrgrGGGggrrrrrgggrrGGGggrrrrr" name="p4_green" />
    <phase duration="3" state="ggrgryyyggrrrrrgggrryyyggrrrrr" name="p4_yellow" />
    <phase duration="2" state="ggrgrrrrggrrrrrgggrrrrrggrrrrr" name="p4_clearance" />
  </tlLogic>
</additional>