<?xml version='1.0' encoding='utf-8'?>
<routes>
  <vType id="demo_15_official_passenger" vClass="passenger" emissionClass="HBEFA3/PC_G_EU4" accel="2.6" decel="4.5" sigma="0.5" length="5" width="1.8" minGap="2.5" maxSpeed="13.9" />
  <flow id="demo_15_evening_peak_00_east_left" type="demo_15_official_passenger" begin="0" end="900" number="41" departLane="best" departSpeed="max">
    <route edges="-46787 -56027" />
  </flow>
  <flow id="demo_15_evening_peak_00_east_through" type="demo_15_official_passenger" begin="0" end="900" number="92" departLane="best" departSpeed="max">
    <route edges="-46787 -46786" />
  </flow>
  <flow id="demo_15_evening_peak_00_east_right" type="demo_15_official_passenger" begin="0" end="900" number="42" departLane="best" departSpeed="max">
    <route edges="-46787 -52228" />
  </flow>
  <flow id="demo_15_evening_peak_00_west_left" type="demo_15_official_passenger" begin="0" end="900" number="70" departLane="best" departSpeed="max">
    <route edges="-52560 -52228" />
  </flow>
  <flow id="demo_15_evening_peak_00_west_through" type="demo_15_official_passenger" begin="0" end="900" number="87" departLane="best" departSpeed="max">
    <route edges="-52560 -52561" />
  </flow>
  <flow id="demo_15_evening_peak_00_west_right" type="demo_15_official_passenger" begin="0" end="900" number="43" departLane="best" departSpeed="max">
    <route edges="-52560 -56027" />
  </flow>
  <flow id="demo_15_evening_peak_00_south_left" type="demo_15_official_passenger" begin="0" end="900" number="30" departLane="best" departSpeed="max">
    <route edges="-52227 -46786" />
  </flow>
  <flow id="demo_15_evening_peak_00_south_through" type="demo_15_official_passenger" begin="0" end="900" number="102" departLane="best" departSpeed="max">
    <route edges="-52227 -52228" />
  </flow>
  <flow id="demo_15_evening_peak_00_south_right" type="demo_15_official_passenger" begin="0" end="900" number="86" departLane="best" departSpeed="max">
    <route edges="-52227 -52561" />
  </flow>
  <flow id="demo_15_evening_peak_00_north_left" type="demo_15_official_passenger" begin="0" end="900" number="72" departLane="best" departSpeed="max">
    <route edges="-56026 -52561" />
  </flow>
  <flow id="demo_15_evening_peak_00_north_through" type="demo_15_official_passenger" begin="0" end="900" number="79" departLane="best" departSpeed="max">
    <route edges="-56026 -56027" />
  </flow>
  <flow id="demo_15_evening_peak_00_north_right" type="demo_15_official_passenger" begin="0" end="900" number="73" departLane="best" departSpeed="max">
    <route edges="-56026 -46786" />
  </flow>
  <flow id="demo_15_evening_peak_01_east_left" type="demo_15_official_passenger" begin="900" end="1800" number="36" departLane="best" departSpeed="max">
    <route edges="-46787 -56027" />
  </flow>
  <flow id="demo_15_evening_peak_01_east_through" type="demo_15_official_passenger" begin="900" end="1800" number="85" departLane="best" departSpeed="max">
    <route edges="-46787 -46786" />
  </flow>
  <flow id="demo_15_evening_peak_01_east_right" type="demo_15_official_passenger" begin="900" end="1800" number="35" departLane="best" departSpeed="max">
    <route edges="-46787 -52228" />
  </flow>
  <flow id="demo_15_evening_peak_01_west_left" type="demo_15_official_passenger" begin="900" end="1800" number="68" departLane="best" departSpeed="max">
    <route edges="-52560 -52228" />
  </flow>
  <flow id="demo_15_evening_peak_01_west_through" type="demo_15_official_passenger" begin="900" end="1800" number="92" departLane="best" departSpeed="max">
    <route edges="-52560 -52561" />
  </flow>
  <flow id="demo_15_evening_peak_01_west_right" type="demo_15_official_passenger" begin="900" end="1800" number="38" departLane="best" departSpeed="max">
    <route edges="-52560 -56027" />
  </flow>
  <flow id="demo_15_evening_peak_01_south_left" type="demo_15_official_passenger" begin="900" end="1800" number="25" departLane="best" departSpeed="max">
    <route edges="-52227 -46786" />
  </flow>
  <flow id="demo_15_evening_peak_01_south_through" type="demo_15_official_passenger" begin="900" end="1800" number="95" departLane="best" departSpeed="max">
    <route edges="-52227 -52228" />
  </flow>
  <flow id="demo_15_evening_peak_01_south_right" type="demo_15_official_passenger" begin="900" end="1800" number="81" departLane="best" departSpeed="max">
    <route edges="-52227 -52561" />
  </flow>
  <flow id="demo_15_evening_peak_01_north_left" type="demo_15_official_passenger" begin="900" end="1800" number="78" departLane="best" departSpeed="max">
    <route edges="-56026 -52561" />
  </flow>
  <flow id="demo_15_evening_peak_01_north_through" type="demo_15_official_passenger" begin="900" end="1800" number="82" departLane="best" departSpeed="max">
    <route edges="-56026 -56027" />
  </flow>
  <flow id="demo_15_evening_peak_01_north_right" type="demo_15_official_passenger" begin="900" end="1800" number="68" departLane="best" departSpeed="max">
    <route edges="-56026 -46786" />
  </flow>
  <flow id="demo_15_evening_peak_02_east_left" type="demo_15_official_passenger" begin="1800" end="2700" number="39" departLane="best" departSpeed="max">
    <route edges="-46787 -56027" />
  </flow>
  <flow id="demo_15_evening_peak_02_east_through" type="demo_15_official_passenger" begin="1800" end="2700" number="98" departLane="best" departSpeed="max">
    <route edges="-46787 -46786" />
  </flow>
  <flow id="demo_15_evening_peak_02_east_right" type="demo_15_official_passenger" begin="1800" end="2700" number="38" departLane="best" departSpeed="max">
    <route edges="-46787 -52228" />
  </flow>
  <flow id="demo_15_evening_peak_02_west_left" type="demo_15_official_passenger" begin="1800" end="2700" number="74" departLane="best" departSpeed="max">
    <route edges="-52560 -52228" />
  </flow>
  <flow id="demo_15_evening_peak_02_west_through" type="demo_15_official_passenger" begin="1800" end="2700" number="91" departLane="best" departSpeed="max">
    <route edges="-52560 -52561" />
  </flow>
  <flow id="demo_15_evening_peak_02_west_right" type="demo_15_official_passenger" begin="1800" end="2700" number="41" departLane="best" departSpeed="max">
    <route edges="-52560 -56027" />
  </flow>
  <flow id="demo_15_evening_peak_02_south_left" type="demo_15_official_passenger" begin="1800" end="2700" number="28" departLane="best" departSpeed="max">
    <route edges="-52227 -46786" />
  </flow>
  <flow id="demo_15_evening_peak_02_south_through" type="demo_15_official_passenger" begin="1800" end="2700" number="108" departLane="best" departSpeed="max">
    <route edges="-52227 -52228" />
  </flow>
  <flow id="demo_15_evening_peak_02_south_right" type="demo_15_official_passenger" begin="1800" end="2700" number="90" departLane="best" departSpeed="max">
    <route edges="-52227 -52561" />
  </flow>
  <flow id="demo_15_evening_peak_02_north_left" type="demo_15_official_passenger" begin="1800" end="2700" number="75" departLane="best" departSpeed="max">
    <route edges="-56026 -52561" />
  </flow>
  <flow id="demo_15_evening_peak_02_north_through" type="demo_15_official_passenger" begin="1800" end="2700" number="85" departLane="best" departSpeed="max">
    <route edges="-56026 -56027" />
  </flow>
  <flow id="demo_15_evening_peak_02_north_right" type="demo_15_official_passenger" begin="1800" end="2700" number="76" departLane="best" departSpeed="max">
    <route edges="-56026 -46786" />
  </flow>
  <flow id="demo_15_evening_peak_03_east_left" type="demo_15_official_passenger" begin="2700" end="3600" number="32" departLane="best" departSpeed="max">
    <route edges="-46787 -56027" />
  </flow>
  <flow id="demo_15_evening_peak_03_east_through" type="demo_15_official_passenger" begin="2700" end="3600" number="89" departLane="best" departSpeed="max">
    <route edges="-46787 -46786" />
  </flow>
  <flow id="demo_15_evening_peak_03_east_right" type="demo_15_official_passenger" begin="2700" end="3600" number="29" departLane="best" departSpeed="max">
    <route edges="-46787 -52228" />
  </flow>
  <flow id="demo_15_evening_peak_03_west_left" type="demo_15_official_passenger" begin="2700" end="3600" number="66" departLane="best" departSpeed="max">
    <route edges="-52560 -52228" />
  </flow>
  <flow id="demo_15_evening_peak_03_west_through" type="demo_15_official_passenger" begin="2700" end="3600" number="85" departLane="best" departSpeed="max">
    <route edges="-52560 -52561" />
  </flow>
  <flow id="demo_15_evening_peak_03_west_right" type="demo_15_official_passenger" begin="2700" end="3600" number="36" departLane="best" departSpeed="max">
    <route edges="-52560 -56027" />
  </flow>
  <flow id="demo_15_evening_peak_03_south_left" type="demo_15_official_passenger" begin="2700" end="3600" number="26" departLane="best" departSpeed="max">
    <route edges="-52227 -46786" />
  </flow>
  <flow id="demo_15_evening_peak_03_south_through" type="demo_15_official_passenger" begin="2700" end="3600" number="98" departLane="best" departSpeed="max">
    <route edges="-52227 -52228" />
  </flow>
  <flow id="demo_15_evening_peak_03_south_right" type="demo_15_official_passenger" begin="2700" end="3600" number="83" departLane="best" departSpeed="max">
    <route edges="-52227 -52561" />
  </flow>
  <flow id="demo_15_evening_peak_03_north_left" type="demo_15_official_passenger" begin="2700" end="3600" number="81" departLane="best" departSpeed="max">
    <route edges="-56026 -52561" />
  </flow>
  <flow id="demo_15_evening_peak_03_north_through" type="demo_15_official_passenger" begin="2700" end="3600" number="80" departLane="best" departSpeed="max">
    <route edges="-56026 -56027" />
  </flow>
  <flow id="demo_15_evening_peak_03_north_right" type="demo_15_official_passenger" begin="2700" end="3600" number="69" departLane="best" departSpeed="max">
    <route edges="-56026 -46786" />
  </flow>
  <flow id="demo_15_evening_peak_04_east_left" type="demo_15_official_passenger" begin="3600" end="4500" number="37" departLane="best" departSpeed="max">
    <route edges="-46787 -56027" />
  </flow>
  <flow id="demo_15_evening_peak_04_east_through" type="demo_15_official_passenger" begin="3600" end="4500" number="96" departLane="best" departSpeed="max">
    <route edges="-46787 -46786" />
  </flow>
  <flow id="demo_15_evening_peak_04_east_right" type="demo_15_official_passenger" begin="3600" end="4500" number="36" departLane="best" departSpeed="max">
    <route edges="-46787 -52228" />
  </flow>
  <flow id="demo_15_evening_peak_04_west_left" type="demo_15_official_passenger" begin="3600" end="4500" number="71" departLane="best" departSpeed="max">
    <route edges="-52560 -52228" />
  </flow>
  <flow id="demo_15_evening_peak_04_west_through" type="demo_15_official_passenger" begin="3600" end="4500" number="78" departLane="best" departSpeed="max">
    <route edges="-52560 -52561" />
  </flow>
  <flow id="demo_15_evening_peak_04_west_right" type="demo_15_official_passenger" begin="3600" end="4500" number="45" departLane="best" departSpeed="max">
    <route edges="-52560 -56027" />
  </flow>
  <flow id="demo_15_evening_peak_04_south_left" type="demo_15_official_passenger" begin="3600" end="4500" number="29" departLane="best" departSpeed="max">
    <route edges="-52227 -46786" />
  </flow>
  <flow id="demo_15_evening_peak_04_south_through" type="demo_15_official_passenger" begin="3600" end="4500" number="105" departLane="best" departSpeed="max">
    <route edges="-52227 -52228" />
  </flow>
  <flow id="demo_15_evening_peak_04_south_right" type="demo_15_official_passenger" begin="3600" end="4500" number="88" departLane="best" departSpeed="max">
    <route edges="-52227 -52561" />
  </flow>
  <flow id="demo_15_evening_peak_04_north_left" type="demo_15_official_passenger" begin="3600" end="4500" number="69" departLane="best" departSpeed="max">
    <route edges="-56026 -52561" />
  </flow>
  <flow id="demo_15_evening_peak_04_north_through" type="demo_15_official_passenger" begin="3600" end="4500" number="83" departLane="best" departSpeed="max">
    <route edges="-56026 -56027" />
  </flow>
  <flow id="demo_15_evening_peak_04_north_right" type="demo_15_official_passenger" begin="3600" end="4500" number="71" departLane="best" departSpeed="max">
    <route edges="-56026 -46786" />
  </flow>
  <flow id="demo_15_evening_peak_05_east_left" type="demo_15_official_passenger" begin="4500" end="5400" number="40" departLane="best" departSpeed="max">
    <route edges="-46787 -56027" />
  </flow>
  <flow id="demo_15_evening_peak_05_east_through" type="demo_15_official_passenger" begin="4500" end="5400" number="82" departLane="best" departSpeed="max">
    <route edges="-46787 -46786" />
  </flow>
  <flow id="demo_15_evening_peak_05_east_right" type="demo_15_official_passenger" begin="4500" end="5400" number="41" departLane="best" departSpeed="max">
    <route edges="-46787 -52228" />
  </flow>
  <flow id="demo_15_evening_peak_05_west_left" type="demo_15_official_passenger" begin="4500" end="5400" number="69" departLane="best" departSpeed="max">
    <route edges="-52560 -52228" />
  </flow>
  <flow id="demo_15_evening_peak_05_west_through" type="demo_15_official_passenger" begin="4500" end="5400" number="79" departLane="best" departSpeed="max">
    <route edges="-52560 -52561" />
  </flow>
  <flow id="demo_15_evening_peak_05_west_right" type="demo_15_official_passenger" begin="4500" end="5400" number="39" departLane="best" departSpeed="max">
    <route edges="-52560 -56027" />
  </flow>
  <flow id="demo_15_evening_peak_05_south_left" type="demo_15_official_passenger" begin="4500" end="5400" number="27" departLane="best" departSpeed="max">
    <route edges="-52227 -46786" />
  </flow>
  <flow id="demo_15_evening_peak_05_south_through" type="demo_15_official_passenger" begin="4500" end="5400" number="92" departLane="best" departSpeed="max">
    <route edges="-52227 -52228" />
  </flow>
  <flow id="demo_15_evening_peak_05_south_right" type="demo_15_official_passenger" begin="4500" end="5400" number="79" departLane="best" departSpeed="max">
    <route edges="-52227 -52561" />
  </flow>
  <flow id="demo_15_evening_peak_05_north_left" type="demo_15_official_passenger" begin="4500" end="5400" number="76" departLane="best" departSpeed="max">
    <route edges="-56026 -52561" />
  </flow>
  <flow id="demo_15_evening_peak_05_north_through" type="demo_15_official_passenger" begin="4500" end="5400" number="76" departLane="best" departSpeed="max">
    <route edges="-56026 -56027" />
  </flow>
  <flow id="demo_15_evening_peak_05_north_right" type="demo_15_official_passenger" begin="4500" end="5400" number="75" departLane="best" departSpeed="max">
    <route edges="-56026 -46786" />
  </flow>
  <flow id="demo_15_evening_peak_06_east_left" type="demo_15_official_passenger" begin="5400" end="6300" number="33" departLane="best" departSpeed="max">
    <route edges="-46787 -56027" />
  </flow>
  <flow id="demo_15_evening_peak_06_east_through" type="demo_15_official_passenger" begin="5400" end="6300" number="90" departLane="best" departSpeed="max">
    <route edges="-46787 -46786" />
  </flow>
  <flow id="demo_15_evening_peak_06_east_right" type="demo_15_official_passenger" begin="5400" end="6300" number="30" departLane="best" departSpeed="max">
    <route edges="-46787 -52228" />
  </flow>
  <flow id="demo_15_evening_peak_06_west_left" type="demo_15_official_passenger" begin="5400" end="6300" number="73" departLane="best" departSpeed="max">
    <route edges="-52560 -52228" />
  </flow>
  <flow id="demo_15_evening_peak_06_west_through" type="demo_15_official_passenger" begin="5400" end="6300" number="93" departLane="best" departSpeed="max">
    <route edges="-52560 -52561" />
  </flow>
  <flow id="demo_15_evening_peak_06_west_right" type="demo_15_official_passenger" begin="5400" end="6300" number="42" departLane="best" departSpeed="max">
    <route edges="-52560 -56027" />
  </flow>
  <flow id="demo_15_evening_peak_06_south_left" type="demo_15_official_passenger" begin="5400" end="6300" number="32" departLane="best" departSpeed="max">
    <route edges="-52227 -46786" />
  </flow>
  <flow id="demo_15_evening_peak_06_south_through" type="demo_15_official_passenger" begin="5400" end="6300" number="101" departLane="best" departSpeed="max">
    <route edges="-52227 -52228" />
  </flow>
  <flow id="demo_15_evening_peak_06_south_right" type="demo_15_official_passenger" begin="5400" end="6300" number="92" departLane="best" departSpeed="max">
    <route edges="-52227 -52561" />
  </flow>
  <flow id="demo_15_evening_peak_06_north_left" type="demo_15_official_passenger" begin="5400" end="6300" number="83" departLane="best" departSpeed="max">
    <route edges="-56026 -52561" />
  </flow>
  <flow id="demo_15_evening_peak_06_north_through" type="demo_15_official_passenger" begin="5400" end="6300" number="88" departLane="best" departSpeed="max">
    <route edges="-56026 -56027" />
  </flow>
  <flow id="demo_15_evening_peak_06_north_right" type="demo_15_official_passenger" begin="5400" end="6300" number="67" departLane="best" departSpeed="max">
    <route edges="-56026 -46786" />
  </flow>
  <flow id="demo_15_evening_peak_07_east_left" type="demo_15_official_passenger" begin="6300" end="7200" number="28" departLane="best" departSpeed="max">
    <route edges="-46787 -56027" />
  </flow>
  <flow id="demo_15_evening_peak_07_east_through" type="demo_15_official_passenger" begin="6300" end="7200" number="97" departLane="best" departSpeed="max">
    <route edges="-46787 -46786" />
  </flow>
  <flow id="demo_15_evening_peak_07_east_right" type="demo_15_official_passenger" begin="6300" end="7200" number="32" departLane="best" departSpeed="max">
    <route edges="-46787 -52228" />
  </flow>
  <flow id="demo_15_evening_peak_07_west_left" type="demo_15_official_passenger" begin="6300" end="7200" number="66" departLane="best" departSpeed="max">
    <route edges="-52560 -52228" />
  </flow>
  <flow id="demo_15_evening_peak_07_west_through" type="demo_15_official_passenger" begin="6300" end="7200" number="91" departLane="best" departSpeed="max">
    <route edges="-52560 -52561" />
  </flow>
  <flow id="demo_15_evening_peak_07_west_right" type="demo_15_official_passenger" begin="6300" end="7200" number="37" departLane="best" departSpeed="max">
    <route edges="-52560 -56027" />
  </flow>
  <flow id="demo_15_evening_peak_07_south_left" type="demo_15_official_passenger" begin="6300" end="7200" number="22" departLane="best" departSpeed="max">
    <route edges="-52227 -46786" />
  </flow>
  <flow id="demo_15_evening_peak_07_south_through" type="demo_15_official_passenger" begin="6300" end="7200" number="101" departLane="best" departSpeed="max">
    <route edges="-52227 -52228" />
  </flow>
  <flow id="demo_15_evening_peak_07_south_right" type="demo_15_official_passenger" begin="6300" end="7200" number="85" departLane="best" departSpeed="max">
    <route edges="-52227 -52561" />
  </flow>
  <flow id="demo_15_evening_peak_07_north_left" type="demo_15_official_passenger" begin="6300" end="7200" number="60" departLane="best" departSpeed="max">
    <route edges="-56026 -52561" />
  </flow>
  <flow id="demo_15_evening_peak_07_north_through" type="demo_15_official_passenger" begin="6300" end="7200" number="80" departLane="best" departSpeed="max">
    <route edges="-56026 -56027" />
  </flow>
  <flow id="demo_15_evening_peak_07_north_right" type="demo_15_official_passenger" begin="6300" end="7200" number="82" departLane="best" departSpeed="max">
    <route edges="-56026 -46786" />
  </flow>
</routes>