<?xml version='1.0' encoding='utf-8'?>
<routes>
  <vType id="demo_2_official_passenger" vClass="passenger" emissionClass="HBEFA3/PC_G_EU4" accel="2.6" decel="4.5" sigma="0.5" length="5" width="1.8" minGap="2.5" maxSpeed="13.9" />
  <flow id="demo_2_morning_peak_00_west_left" type="demo_2_official_passenger" begin="0" end="900" number="69" departLane="best" departSpeed="max">
    <route edges="-51425 -56736" />
  </flow>
  <flow id="demo_2_morning_peak_00_west_right" type="demo_2_official_passenger" begin="0" end="900" number="36" departLane="best" departSpeed="max">
    <route edges="-51425 -57229" />
  </flow>
  <flow id="demo_2_morning_peak_00_north_through" type="demo_2_official_passenger" begin="0" end="900" number="57" departLane="best" departSpeed="max">
    <route edges="-56734 -56736" />
  </flow>
  <flow id="demo_2_morning_peak_00_north_right" type="demo_2_official_passenger" begin="0" end="900" number="53" departLane="best" departSpeed="max">
    <route edges="-56734 -45801" />
  </flow>
  <flow id="demo_2_morning_peak_00_south_left" type="demo_2_official_passenger" begin="0" end="900" number="82" departLane="best" departSpeed="max">
    <route edges="-57228 -45801" />
  </flow>
  <flow id="demo_2_morning_peak_00_south_through" type="demo_2_official_passenger" begin="0" end="900" number="49" departLane="best" departSpeed="max">
    <route edges="-57228 -57229" />
  </flow>
  <flow id="demo_2_morning_peak_01_west_left" type="demo_2_official_passenger" begin="900" end="1800" number="65" departLane="best" departSpeed="max">
    <route edges="-51425 -56736" />
  </flow>
  <flow id="demo_2_morning_peak_01_west_right" type="demo_2_official_passenger" begin="900" end="1800" number="37" departLane="best" departSpeed="max">
    <route edges="-51425 -57229" />
  </flow>
  <flow id="demo_2_morning_peak_01_north_through" type="demo_2_official_passenger" begin="900" end="1800" number="60" departLane="best" departSpeed="max">
    <route edges="-56734 -56736" />
  </flow>
  <flow id="demo_2_morning_peak_01_north_right" type="demo_2_official_passenger" begin="900" end="1800" number="51" departLane="best" departSpeed="max">
    <route edges="-56734 -45801" />
  </flow>
  <flow id="demo_2_morning_peak_01_south_left" type="demo_2_official_passenger" begin="900" end="1800" number="77" departLane="best" departSpeed="max">
    <route edges="-57228 -45801" />
  </flow>
  <flow id="demo_2_morning_peak_01_south_through" type="demo_2_official_passenger" begin="900" end="1800" number="52" departLane="best" departSpeed="max">
    <route edges="-57228 -57229" />
  </flow>
  <flow id="demo_2_morning_peak_02_west_left" type="demo_2_official_passenger" begin="1800" end="2700" number="66" departLane="best" departSpeed="max">
    <route edges="-51425 -56736" />
  </flow>
  <flow id="demo_2_morning_peak_02_west_right" type="demo_2_official_passenger" begin="1800" end="2700" number="35" departLane="best" departSpeed="max">
    <route edges="-51425 -57229" />
  </flow>
  <flow id="demo_2_morning_peak_02_north_through" type="demo_2_official_passenger" begin="1800" end="2700" number="63" departLane="best" departSpeed="max">
    <route edges="-56734 -56736" />
  </flow>
  <flow id="demo_2_morning_peak_02_north_right" type="demo_2_official_passenger" begin="1800" end="2700" number="54" departLane="best" departSpeed="max">
    <route edges="-56734 -45801" />
  </flow>
  <flow id="demo_2_morning_peak_02_south_left" type="demo_2_official_passenger" begin="1800" end="2700" number="84" departLane="best" departSpeed="max">
    <route edges="-57228 -45801" />
  </flow>
  <flow id="demo_2_morning_peak_02_south_through" type="demo_2_official_passenger" begin="1800" end="2700" number="51" departLane="best" departSpeed="max">
    <route edges="-57228 -57229" />
  </flow>
  <flow id="demo_2_morning_peak_03_west_left" type="demo_2_official_passenger" begin="2700" end="3600" number="64" departLane="best" departSpeed="max">
    <route edges="-51425 -56736" />
  </flow>
  <flow id="demo_2_morning_peak_03_west_right" type="demo_2_official_passenger" begin="2700" end="3600" number="37" departLane="best" departSpeed="max">
    <route edges="-51425 -57229" />
  </flow>
  <flow id="demo_2_morning_peak_03_north_through" type="demo_2_official_passenger" begin="2700" end="3600" number="61" departLane="best" departSpeed="max">
    <route edges="-56734 -56736" />
  </flow>
  <flow id="demo_2_morning_peak_03_north_right" type="demo_2_official_passenger" begin="2700" end="3600" number="51" departLane="best" departSpeed="max">
    <route edges="-56734 -45801" />
  </flow>
  <flow id="demo_2_morning_peak_03_south_left" type="demo_2_official_passenger" begin="2700" end="3600" number="78" departLane="best" departSpeed="max">
    <route edges="-57228 -45801" />
  </flow>
  <flow id="demo_2_morning_peak_03_south_through" type="demo_2_official_passenger" begin="2700" end="3600" number="50" departLane="best" departSpeed="max">
    <route edges="-57228 -57229" />
  </flow>
  <flow id="demo_2_morning_peak_04_west_left" type="demo_2_official_passenger" begin="3600" end="4500" number="70" departLane="best" departSpeed="max">
    <route edges="-51425 -56736" />
  </flow>
  <flow id="demo_2_morning_peak_04_west_right" type="demo_2_official_passenger" begin="3600" end="4500" number="36" departLane="best" departSpeed="max">
    <route edges="-51425 -57229" />
  </flow>
  <flow id="demo_2_morning_peak_04_north_through" type="demo_2_official_passenger" begin="3600" end="4500" number="58" departLane="best" departSpeed="max">
    <route edges="-56734 -56736" />
  </flow>
  <flow id="demo_2_morning_peak_04_north_right" type="demo_2_official_passenger" begin="3600" end="4500" number="55" departLane="best" departSpeed="max">
    <route edges="-56734 -45801" />
  </flow>
  <flow id="demo_2_morning_peak_04_south_left" type="demo_2_official_passenger" begin="3600" end="4500" number="80" departLane="best" departSpeed="max">
    <route edges="-57228 -45801" />
  </flow>
  <flow id="demo_2_morning_peak_04_south_through" type="demo_2_official_passenger" begin="3600" end="4500" number="46" departLane="best" departSpeed="max">
    <route edges="-57228 -57229" />
  </flow>
  <flow id="demo_2_morning_peak_05_west_left" type="demo_2_official_passenger" begin="4500" end="5400" number="64" departLane="best" departSpeed="max">
    <route edges="-51425 -56736" />
  </flow>
  <flow id="demo_2_morning_peak_05_west_right" type="demo_2_official_passenger" begin="4500" end="5400" number="35" departLane="best" departSpeed="max">
    <route edges="-51425 -57229" />
  </flow>
  <flow id="demo_2_morning_peak_05_north_through" type="demo_2_official_passenger" begin="4500" end="5400" number="62" departLane="best" departSpeed="max">
    <route edges="-56734 -56736" />
  </flow>
  <flow id="demo_2_morning_peak_05_north_right" type="demo_2_official_passenger" begin="4500" end="5400" number="52" departLane="best" departSpeed="max">
    <route edges="-56734 -45801" />
  </flow>
  <flow id="demo_2_morning_peak_05_south_left" type="demo_2_official_passenger" begin="4500" end="5400" number="85" departLane="best" departSpeed="max">
    <route edges="-57228 -45801" />
  </flow>
  <flow id="demo_2_morning_peak_05_south_through" type="demo_2_official_passenger" begin="4500" end="5400" number="49" departLane="best" departSpeed="max">
    <route edges="-57228 -57229" />
  </flow>
  <flow id="demo_2_morning_peak_06_west_left" type="demo_2_official_passenger" begin="5400" end="6300" number="63" departLane="best" departSpeed="max">
    <route edges="-51425 -56736" />
  </flow>
  <flow id="demo_2_morning_peak_06_west_right" type="demo_2_official_passenger" begin="5400" end="6300" number="34" departLane="best" departSpeed="max">
    <route edges="-51425 -57229" />
  </flow>
  <flow id="demo_2_morning_peak_06_north_through" type="demo_2_official_passenger" begin="5400" end="6300" number="58" departLane="best" departSpeed="max">
    <route edges="-56734 -56736" />
  </flow>
  <flow id="demo_2_morning_peak_06_north_right" type="demo_2_official_passenger" begin="5400" end="6300" number="53" departLane="best" departSpeed="max">
    <route edges="-56734 -45801" />
  </flow>
  <flow id="demo_2_morning_peak_06_south_left" type="demo_2_official_passenger" begin="5400" end="6300" number="81" departLane="best" departSpeed="max">
    <route edges="-57228 -45801" />
  </flow>
  <flow id="demo_2_morning_peak_06_south_through" type="demo_2_official_passenger" begin="5400" end="6300" number="51" departLane="best" departSpeed="max">
    <route edges="-57228 -57229" />
  </flow>
  <flow id="demo_2_morning_peak_07_west_left" type="demo_2_official_passenger" begin="6300" end="7200" number="69" departLane="best" departSpeed="max">
    <route edges="-51425 -56736" />
  </flow>
  <flow id="demo_2_morning_peak_07_west_right" type="demo_2_official_passenger" begin="6300" end="7200" number="36" departLane="best" departSpeed="max">
    <route edges="-51425 -57229" />
  </flow>
  <flow id="demo_2_morning_peak_07_north_through" type="demo_2_official_passenger" begin="6300" end="7200" number="59" departLane="best" departSpeed="max">
    <route edges="-56734 -56736" />
  </flow>
  <flow id="demo_2_morning_peak_07_north_right" type="demo_2_official_passenger" begin="6300" end="7200" number="56" departLane="best" departSpeed="max">
    <route edges="-56734 -45801" />
  </flow>
  <flow id="demo_2_morning_peak_07_south_left" type="demo_2_official_passenger" begin="6300" end="7200" number="79" departLane="best" departSpeed="max">
    <route edges="-57228 -45801" />
  </flow>
  <flow id="demo_2_morning_peak_07_south_through" type="demo_2_official_passenger" begin="6300" end="7200" number="48" departLane="best" departSpeed="max">
    <route edges="-57228 -57229" />
  </flow>
</routes>