<?xml version='1.0' encoding='utf-8'?>
<additional>
  <tlLogic id="3936" type="static" programID="demo_6_off_peak" offset="0">
    <phase duration="57" state="ggrrrrggGGggrrrgGGgg" name="p1_green" />
    <phase duration="3" state="ggrrrrggyyygrrrgyyyy" name="p1_yellow" />
    <phase duration="26" state="ggrrggggrrrgrrggrrrr" name="p2_green" />
    <phase duration="3" state="ggrryyggrrrgrrygrrrr" name="p2_yellow" />
    <phase duration="45" state="ggGGrrggrrrgGGrgrrrr" name="p3_green" />
    <phase duration="3" state="ggyyrrggrrrgyyrgrrrr" name="p3_yellow" />
  </tlLogic>
</additional>